<?xml version="1.0" encoding="UTF-8"?>
<!-- generated on 2021-11-10 20:04:26.437384 by $Id$ v1.8.0-0000000000
  options: -n iit.net.xml <doubleminus>fringe-factor 10 -b 0 -e 10 -p 0.05 <doubleminus>route-file iit.rou.xml
-->
<routes xmlns:xsi="http://www.w3.org/2001/XMLSchema-instance" xsi:noNamespaceSchemaLocation="http://sumo.dlr.de/xsd/routes_file.xsd">
    <trip id="0" depart="0.00" from="294592601#0" to="-149987524#3"/>
    <trip id="1" depart="0.05" from="-435561333" to="-435561333"/>
    <trip id="2" depart="0.10" from="435558486" to="435559503#0"/>
    <trip id="3" depart="0.15" from="435724068" to="-235714536#1"/>
    <trip id="4" depart="0.20" from="149987524#0" to="-149987524#3"/>
    <trip id="5" depart="0.25" from="-435558495#1" to="316907582#0"/>
    <trip id="6" depart="0.30" from="-145826648#9" to="-435558489"/>
    <trip id="7" depart="0.35" from="294592601#0" to="435542913#0"/>
    <trip id="8" depart="0.40" from="-435559503#1" to="435542917#0"/>
    <trip id="9" depart="0.45" from="435558493" to="-149987524#3"/>
    <trip id="10" depart="0.50" from="435558492" to="435559503#0"/>
    <trip id="11" depart="0.55" from="-867133912" to="-435558489"/>
    <trip id="12" depart="0.60" from="514505609" to="145826648#0"/>
    <trip id="13" depart="0.65" from="-145834820" to="-235714536#1"/>
    <trip id="14" depart="0.70" from="435561331#0" to="435542917#0"/>
    <trip id="15" depart="0.75" from="435558493" to="435559509#0"/>
    <trip id="16" depart="0.80" from="255370738#0" to="867133913#0"/>
    <trip id="17" depart="0.85" from="-867133913#1" to="435542913#0"/>
    <trip id="18" depart="0.90" from="435559511#0" to="435542917#0"/>
    <trip id="19" depart="0.95" from="435561333" to="435542917#0"/>
    <trip id="20" depart="1.00" from="314011257" to="-149987524#3"/>
    <trip id="21" depart="1.05" from="-435559503#1" to="-514505609"/>
    <trip id="22" depart="1.10" from="-145834820" to="-488356723#2"/>
    <trip id="23" depart="1.15" from="-145834820" to="-514505609"/>
    <trip id="24" depart="1.20" from="255623676#0" to="145834820"/>
    <trip id="25" depart="1.25" from="-867133913#1" to="-435558493"/>
    <trip id="26" depart="1.30" from="-435559503#1" to="867133912"/>
    <trip id="27" depart="1.35" from="294592601#0" to="435542917#0"/>
    <trip id="28" depart="1.40" from="-435542917#2" to="435559509#0"/>
    <trip id="29" depart="1.45" from="-435542917#2" to="145834820"/>
    <trip id="30" depart="1.50" from="514505609" to="435558487#0"/>
    <trip id="31" depart="1.55" from="255370738#0" to="435559503#0"/>
    <trip id="32" depart="1.60" from="435561324" to="435559511#0"/>
    <trip id="33" depart="1.65" from="-435559503#1" to="-149987524#3"/>
    <trip id="34" depart="1.70" from="-867133912" to="-514505609"/>
    <trip id="35" depart="1.75" from="-435558493" to="867133912"/>
    <trip id="36" depart="1.80" from="435724062" to="145826648#0"/>
    <trip id="37" depart="1.85" from="294592601#0" to="145834820"/>
    <trip id="38" depart="1.90" from="499084040#0" to="314011263#0"/>
    <trip id="39" depart="1.95" from="-435559503#1" to="-514505609"/>
    <trip id="40" depart="2.00" from="255370738#0" to="-514505609"/>
    <trip id="41" depart="2.05" from="255370738#2" to="867133912"/>
    <trip id="42" depart="2.10" from="-867133913#1" to="-435558495#1"/>
    <trip id="43" depart="2.15" from="983216734" to="316907582#0"/>
    <trip id="44" depart="2.20" from="-145834820" to="-149987524#3"/>
    <trip id="45" depart="2.25" from="-24079931#2" to="435542917#0"/>
    <trip id="46" depart="2.30" from="435558489" to="24105922"/>
    <trip id="47" depart="2.35" from="-145834820" to="145834820"/>
    <trip id="48" depart="2.40" from="983216734" to="435542913#0"/>
    <trip id="49" depart="2.45" from="514505609" to="488356723#1"/>
    <trip id="50" depart="2.50" from="-145826648#9" to="435559509#0"/>
    <trip id="51" depart="2.55" from="294592601#0" to="435542913#0"/>
    <trip id="52" depart="2.60" from="-435559503#1" to="435558487#0"/>
    <trip id="53" depart="2.65" from="-24079931#2" to="294592601#2"/>
    <trip id="54" depart="2.70" from="149987524#0" to="867133913#0"/>
    <trip id="55" depart="2.75" from="435724062" to="-514505609"/>
    <trip id="56" depart="2.80" from="235714536#0" to="-435558489"/>
    <trip id="57" depart="2.85" from="488356723#1" to="499084041#0"/>
    <trip id="58" depart="2.90" from="-805354864" to="435558487#0"/>
    <trip id="59" depart="2.95" from="255623676#0" to="-435558489"/>
    <trip id="60" depart="3.00" from="435558489" to="435542913#0"/>
    <trip id="61" depart="3.05" from="435558489" to="435542913#0"/>
    <trip id="62" depart="3.10" from="-145826648#9" to="145826648#0"/>
    <trip id="63" depart="3.15" from="-145826648#9" to="867133912"/>
    <trip id="64" depart="3.20" from="435724064" to="435724067"/>
    <trip id="65" depart="3.25" from="-867133912" to="-235714536#1"/>
    <trip id="66" depart="3.30" from="435724064" to="867133913#0"/>
    <trip id="67" depart="3.35" from="-145834820" to="316907582#0"/>
    <trip id="68" depart="3.40" from="-145834820" to="435559509#0"/>
    <trip id="69" depart="3.45" from="435558489" to="-315989544#2"/>
    <trip id="70" depart="3.50" from="235714536#0" to="435542913#0"/>
    <trip id="71" depart="3.55" from="-435559503#1" to="499084041#0"/>
    <trip id="72" depart="3.60" from="149987524#0" to="-435558493"/>
    <trip id="73" depart="3.65" from="255370738#0" to="435559509#0"/>
    <trip id="74" depart="3.70" from="-435558490" to="145826648#0"/>
    <trip id="75" depart="3.75" from="983216734" to="435558492"/>
    <trip id="76" depart="3.80" from="149987524#0" to="435542908"/>
    <trip id="77" depart="3.85" from="-312901457#1" to="-435561738#1"/>
    <trip id="78" depart="3.90" from="-867133912" to="435542917#0"/>
    <trip id="79" depart="3.95" from="-435559503#1" to="-435561333"/>
    <trip id="80" depart="4.00" from="-145834820" to="435558485#0"/>
    <trip id="81" depart="4.05" from="-435559503#1" to="867133912"/>
    <trip id="82" depart="4.10" from="435561333" to="-235714536#1"/>
    <trip id="83" depart="4.15" from="-435559503#1" to="435559503#0"/>
    <trip id="84" depart="4.20" from="-435558493" to="-315989544#2"/>
    <trip id="85" depart="4.25" from="499084046#0" to="435542913#0"/>
    <trip id="86" depart="4.30" from="235714536#0" to="435559513#0"/>
    <trip id="87" depart="4.35" from="435558493" to="-435558489"/>
    <trip id="88" depart="4.40" from="-145834820" to="255370738#2"/>
    <trip id="89" depart="4.45" from="149987524#0" to="316907582#0"/>
    <trip id="90" depart="4.50" from="435542911" to="435559503#0"/>
    <trip id="91" depart="4.55" from="514505609" to="-235714536#1"/>
    <trip id="92" depart="4.60" from="-867133913#1" to="145826648#0"/>
    <trip id="93" depart="4.65" from="435561333" to="-514505609"/>
    <trip id="94" depart="4.70" from="-435558486" to="312901457#2"/>
    <trip id="95" depart="4.75" from="149987524#0" to="-514505609"/>
    <trip id="96" depart="4.80" from="-435559503#1" to="867133912"/>
    <trip id="97" depart="4.85" from="149987524#0" to="488356723#1"/>
    <trip id="98" depart="4.90" from="255370738#0" to="-149987524#3"/>
    <trip id="99" depart="4.95" from="983216734" to="435724067"/>
    <trip id="100" depart="5.00" from="514505609" to="867133912"/>
    <trip id="101" depart="5.05" from="435561331#0" to="-435558489"/>
    <trip id="102" depart="5.10" from="235714536#0" to="-435558493"/>
    <trip id="103" depart="5.15" from="-867133913#1" to="-235714536#1"/>
    <trip id="104" depart="5.20" from="-867133913#1" to="867133913#0"/>
    <trip id="105" depart="5.25" from="-435559503#1" to="435559513#0"/>
    <trip id="106" depart="5.30" from="153273211#1" to="24105922"/>
    <trip id="107" depart="5.35" from="514505609" to="983216734"/>
    <trip id="108" depart="5.40" from="255370738#0" to="435559508#0"/>
    <trip id="109" depart="5.45" from="-435542917#2" to="-805354864"/>
    <trip id="110" depart="5.50" from="514505609" to="435542917#0"/>
    <trip id="111" depart="5.55" from="255370738#0" to="435559509#0"/>
    <trip id="112" depart="5.60" from="-145834820" to="435542917#0"/>
    <trip id="113" depart="5.65" from="235714536#0" to="435724076"/>
    <trip id="114" depart="5.70" from="-435542917#2" to="867133913#0"/>
    <trip id="115" depart="5.75" from="-145834820" to="-435558489"/>
    <trip id="116" depart="5.80" from="255623676#0" to="435559503#0"/>
    <trip id="117" depart="5.85" from="-435559503#1" to="-312901457#1"/>
    <trip id="118" depart="5.90" from="435724068" to="-514505609"/>
    <trip id="119" depart="5.95" from="255623676#0" to="435542917#0"/>
    <trip id="120" depart="6.00" from="149987524#0" to="435542917#0"/>
    <trip id="121" depart="6.05" from="24105922" to="867133912"/>
    <trip id="122" depart="6.10" from="-435558492" to="435559508#0"/>
    <trip id="123" depart="6.15" from="-435559503#1" to="145834820"/>
    <trip id="124" depart="6.20" from="294592601#0" to="-805354864"/>
    <trip id="125" depart="6.25" from="-867133912" to="435559509#0"/>
    <trip id="126" depart="6.30" from="-145834820" to="314011263#0"/>
    <trip id="127" depart="6.35" from="983216734" to="983216734"/>
    <trip id="128" depart="6.40" from="-145834820" to="-435558493"/>
    <trip id="129" depart="6.45" from="-435559503#1" to="867133912"/>
    <trip id="130" depart="6.50" from="435724064" to="499084043#0"/>
    <trip id="131" depart="6.55" from="-867133913#1" to="-435558489"/>
    <trip id="132" depart="6.60" from="435559513#0" to="435559503#0"/>
    <trip id="133" depart="6.65" from="255623676#0" to="867133913#0"/>
    <trip id="134" depart="6.70" from="294592601#0" to="-149987524#3"/>
    <trip id="135" depart="6.75" from="435559508#0" to="-805354864"/>
    <trip id="136" depart="6.80" from="294592601#0" to="867133912"/>
    <trip id="137" depart="6.85" from="-435542917#2" to="-24105922"/>
    <trip id="138" depart="6.90" from="-153273211#2" to="435542913#0"/>
    <trip id="139" depart="6.95" from="-435561333" to="435542917#0"/>
    <trip id="140" depart="7.00" from="315989544#1" to="-435558490"/>
    <trip id="141" depart="7.05" from="255623676#0" to="-514505609"/>
    <trip id="142" depart="7.10" from="235714536#0" to="867133912"/>
    <trip id="143" depart="7.15" from="435561324" to="-235714536#1"/>
    <trip id="144" depart="7.20" from="149987524#0" to="-514505609"/>
    <trip id="145" depart="7.25" from="-145826648#9" to="435559510#0"/>
    <trip id="146" depart="7.30" from="255623676#0" to="-514505609"/>
    <trip id="147" depart="7.35" from="435558487#0" to="435542913#0"/>
    <trip id="148" depart="7.40" from="149987524#0" to="-149987524#3"/>
    <trip id="149" depart="7.45" from="-145834820" to="499084046#0"/>
    <trip id="150" depart="7.50" from="435724076" to="435542913#0"/>
    <trip id="151" depart="7.55" from="435559513#0" to="435542917#0"/>
    <trip id="152" depart="7.60" from="-435542917#2" to="-312901457#3"/>
    <trip id="153" depart="7.65" from="-867133912" to="867133912"/>
    <trip id="154" depart="7.70" from="435558490" to="488356723#1"/>
    <trip id="155" depart="7.75" from="435724071" to="-435558493"/>
    <trip id="156" depart="7.80" from="-435559503#1" to="-235714536#1"/>
    <trip id="157" depart="7.85" from="435558489" to="499084046#0"/>
    <trip id="158" depart="7.90" from="149987524#0" to="435542917#0"/>
    <trip id="159" depart="7.95" from="-435542917#2" to="867133912"/>
    <trip id="160" depart="8.00" from="435561334" to="867133913#0"/>
    <trip id="161" depart="8.05" from="435558493" to="499084043#0"/>
    <trip id="162" depart="8.10" from="-145826648#9" to="435559509#0"/>
    <trip id="163" depart="8.15" from="-867133912" to="867133912"/>
    <trip id="164" depart="8.20" from="435558492" to="499084040#0"/>
    <trip id="165" depart="8.25" from="435558493" to="-514505609"/>
    <trip id="166" depart="8.30" from="435558489" to="-24079931#2"/>
    <trip id="167" depart="8.35" from="435561738#0" to="488356723#1"/>
    <trip id="168" depart="8.40" from="-435559503#1" to="435561738#0"/>
    <trip id="169" depart="8.45" from="235714536#0" to="145826648#0"/>
    <trip id="170" depart="8.50" from="435558489" to="-435561738#1"/>
    <trip id="171" depart="8.55" from="-145826648#9" to="-435558489"/>
    <trip id="172" depart="8.60" from="-867133912" to="499084040#0"/>
    <trip id="173" depart="8.65" from="514505609" to="-514505609"/>
    <trip id="174" depart="8.70" from="294592601#0" to="145834820"/>
    <trip id="175" depart="8.75" from="514505609" to="435542913#0"/>
    <trip id="176" depart="8.80" from="514505609" to="-24105922"/>
    <trip id="177" depart="8.85" from="514505609" to="-435558489"/>
    <trip id="178" depart="8.90" from="514505609" to="-514505609"/>
    <trip id="179" depart="8.95" from="-24079931#2" to="294592601#2"/>
    <trip id="180" depart="9.00" from="435542911" to="145826648#0"/>
    <trip id="181" depart="9.05" from="255623676#0" to="316907582#0"/>
    <trip id="182" depart="9.10" from="-867133913#1" to="435542917#0"/>
    <trip id="183" depart="9.15" from="-435559503#1" to="435559503#0"/>
    <trip id="184" depart="9.20" from="-145826648#9" to="867133912"/>
    <trip id="185" depart="9.25" from="255370738#0" to="435559509#0"/>
    <trip id="186" depart="9.30" from="435558487#0" to="435559503#0"/>
    <trip id="187" depart="9.35" from="-867133913#1" to="-235714536#1"/>
    <trip id="188" depart="9.40" from="294592601#0" to="145826648#0"/>
    <trip id="189" depart="9.45" from="-867133912" to="435724071"/>
    <trip id="190" depart="9.50" from="435542908" to="-805354864"/>
    <trip id="191" depart="9.55" from="-867133912" to="23891121#0"/>
    <trip id="192" depart="9.60" from="-867133913#1" to="-708019074"/>
    <trip id="193" depart="9.65" from="-312901457#3" to="24105922"/>
    <trip id="194" depart="9.70" from="514505609" to="435559503#0"/>
    <trip id="195" depart="9.75" from="435724071" to="435542917#0"/>
    <trip id="196" depart="9.80" from="-805354864" to="435542913#0"/>
    <trip id="197" depart="9.85" from="-145826648#9" to="-514505609"/>
    <trip id="198" depart="9.90" from="149987524#0" to="435542917#0"/>
    <trip id="199" depart="9.95" from="294592601#0" to="316907582#0"/>
</routes>
