<?xml version="1.0" encoding="UTF-8"?>

<!-- generated on Mon Nov 15 21:52:48 2021 by Eclipse SUMO duarouter Version 1.8.0
<configuration xmlns:xsi="http://www.w3.org/2001/XMLSchema-instance" xsi:noNamespaceSchemaLocation="http://sumo.dlr.de/xsd/duarouterConfiguration.xsd">

    <input>
        <net-file value="iit.net.xml"/>
        <route-files value="trips.trips.xml"/>
    </input>

    <output>
        <output-file value="iit.rou.xml"/>
        <alternatives-output value="iit.rou.alt.xml"/>
    </output>

    <time>
        <begin value="0"/>
        <end value="10"/>
    </time>

    <report>
        <no-warnings value="true"/>
        <ignore-errors value="true"/>
        <no-step-log value="true"/>
    </report>

</configuration>
-->

<routes xmlns:xsi="http://www.w3.org/2001/XMLSchema-instance" xsi:noNamespaceSchemaLocation="http://sumo.dlr.de/xsd/routes_file.xsd">
    <vehicle id="0" depart="0.00">
        <route edges="294592601#0 294592601#2 435724062 24105922 -149987524#3"/>
    </vehicle>
    <vehicle id="1" depart="0.02">
        <route edges="-435561333"/>
    </vehicle>
    <vehicle id="4" depart="0.08">
        <route edges="149987524#0 -149987524#3"/>
    </vehicle>
    <vehicle id="5" depart="0.10">
        <route edges="-435558495#1 -805354864 -435558492 -488356723#2 435724076 983216734 435724067 435724068 435724070 316907582#0"/>
    </vehicle>
    <vehicle id="6" depart="0.12">
        <route edges="-145826648#9 -24105922 488356723#1 -435558493 -435558485#1 -435558486 -435558490 -435558487#1 -435558489"/>
    </vehicle>
    <vehicle id="7" depart="0.14">
        <route edges="294592601#0 435542908 435542913#0"/>
    </vehicle>
    <vehicle id="9" depart="0.18">
        <route edges="435558493 -488356723#2 24105922 -149987524#3"/>
    </vehicle>
    <vehicle id="11" depart="0.22">
        <route edges="-867133912 -315989544#2 255370738#1 312901457#0 -435558490 -435558487#1 -435558489"/>
    </vehicle>
    <vehicle id="12" depart="0.24">
        <route edges="514505609 -315989544#2 255370738#1 255370738#2 435724064 24105922 145826648#0"/>
    </vehicle>
    <vehicle id="14" depart="0.28">
        <route edges="435561331#0 499084041#0 435561333 314011257 435542917#0"/>
    </vehicle>
    <vehicle id="15" depart="0.30">
        <route edges="435558493 24079931#0 435559508#0 435559513#0 23891121#0 435559509#0"/>
    </vehicle>
    <vehicle id="16" depart="0.32">
        <route edges="255370738#0 315989544#1 867133913#0"/>
    </vehicle>
    <vehicle id="17" depart="0.34">
        <route edges="-867133913#1 -315989544#2 255370738#1 255370738#2 435724064 435724071 435542911 435542908 435542913#0"/>
    </vehicle>
    <vehicle id="18" depart="0.36">
        <route edges="435559511#0 435559510#0 499084043#0 499084041#0 435561333 314011257 435542917#0"/>
    </vehicle>
    <vehicle id="19" depart="0.38">
        <route edges="435561333 314011257 435542917#0"/>
    </vehicle>
    <vehicle id="20" depart="0.40">
        <route edges="314011257 435542917#0 -435542917#2 -708019074 -435561333 -435558495#1 -805354864 -435558492 -488356723#2 24105922 -149987524#3"/>
    </vehicle>
    <vehicle id="22" depart="0.44">
        <route edges="-145834820 -24105922 488356723#1 -488356723#2"/>
    </vehicle>
    <vehicle id="23" depart="0.46">
        <route edges="-145834820 -24105922 435724076 983216734 435724067 435724068 435724070 315989544#1 -514505609"/>
    </vehicle>
    <vehicle id="24" depart="0.48">
        <route edges="255623676#0 499084046#0 -24079931#2 -488356723#2 24105922 145834820"/>
    </vehicle>
    <vehicle id="25" depart="0.50">
        <route edges="-867133913#1 -315989544#2 255370738#1 255370738#2 435724064 488356723#1 -435558493"/>
    </vehicle>
    <vehicle id="27" depart="0.54">
        <route edges="294592601#0 153273211#1 435561333 314011257 435542917#0"/>
    </vehicle>
    <vehicle id="28" depart="0.56">
        <route edges="-435542917#2 -708019074 -435561333 -499084041#2 435559511#0 435559510#0 435559508#0 435559513#0 23891121#0 435559509#0"/>
    </vehicle>
    <vehicle id="29" depart="0.58">
        <route edges="-435542917#2 -708019074 -435561333 -435558495#1 -805354864 -435558492 -488356723#2 24105922 145834820"/>
    </vehicle>
    <vehicle id="30" depart="0.60">
        <route edges="514505609 -315989544#2 255370738#1 312901457#0 -435558490 -435558487#1 -435558489 435558489 435558487#0"/>
    </vehicle>
    <vehicle id="32" depart="0.64">
        <route edges="435561324 435561322 435561331#0 435559511#0"/>
    </vehicle>
    <vehicle id="34" depart="0.68">
        <route edges="-867133912 -514505609"/>
    </vehicle>
    <vehicle id="35" depart="0.70">
        <route edges="-435558493 -435558485#1 -435558486 -312901457#1 435724068 435724070 315989544#1 867133912"/>
    </vehicle>
    <vehicle id="36" depart="0.72">
        <route edges="435724062 24105922 145826648#0"/>
    </vehicle>
    <vehicle id="37" depart="0.74">
        <route edges="294592601#0 294592601#2 435724062 24105922 145834820"/>
    </vehicle>
    <vehicle id="38" depart="0.76">
        <route edges="499084040#0 435561332#0 314011263#0"/>
    </vehicle>
    <vehicle id="40" depart="0.80">
        <route edges="255370738#0 315989544#1 -514505609"/>
    </vehicle>
    <vehicle id="41" depart="0.82">
        <route edges="255370738#2 435724064 435724076 983216734 435724067 435724068 435724070 315989544#1 867133912"/>
    </vehicle>
    <vehicle id="42" depart="0.84">
        <route edges="-867133913#1 -315989544#2 255370738#1 255370738#2 435724064 488356723#1 435558492 56150114#0 435558495#0 -435558495#1"/>
    </vehicle>
    <vehicle id="43" depart="0.86">
        <route edges="983216734 435724067 435724068 435724070 316907582#0"/>
    </vehicle>
    <vehicle id="44" depart="0.88">
        <route edges="-145834820 -149987524#3"/>
    </vehicle>
    <vehicle id="45" depart="0.90">
        <route edges="-24079931#2 435558492 56150114#0 435558495#0 435561333 314011257 435542917#0"/>
    </vehicle>
    <vehicle id="46" depart="0.92">
        <route edges="435558489 435558487#0 435558490 435558486 435558485#0 435558493 -488356723#2 24105922"/>
    </vehicle>
    <vehicle id="47" depart="0.94">
        <route edges="-145834820 145834820"/>
    </vehicle>
    <vehicle id="48" depart="0.96">
        <route edges="983216734 435724067 255370738#2 435724064 435724071 435542911 435542908 435542913#0"/>
    </vehicle>
    <vehicle id="49" depart="0.98">
        <route edges="514505609 -315989544#2 255370738#1 255370738#2 435724064 488356723#1"/>
    </vehicle>
    <vehicle id="50" depart="1.00">
        <route edges="-145826648#9 -24105922 488356723#1 24079931#0 435559508#0 435559513#0 23891121#0 435559509#0"/>
    </vehicle>
    <vehicle id="51" depart="1.02">
        <route edges="294592601#0 435542908 435542913#0"/>
    </vehicle>
    <vehicle id="53" depart="1.06">
        <route edges="-24079931#2 435558492 56150114#0 435558495#0 -153273211#2 294592601#2"/>
    </vehicle>
    <vehicle id="54" depart="1.08">
        <route edges="149987524#0 -24105922 435724076 983216734 435724067 435724068 435724070 315989544#1 867133913#0"/>
    </vehicle>
    <vehicle id="55" depart="1.10">
        <route edges="435724062 435724076 983216734 435724067 435724068 435724070 315989544#1 -514505609"/>
    </vehicle>
    <vehicle id="57" depart="1.14">
        <route edges="488356723#1 24079931#0 499084043#0 499084041#0"/>
    </vehicle>
    <vehicle id="58" depart="1.16">
        <route edges="-805354864 -435558492 -435558493 -435558485#1 -435558486 -435558490 -435558487#1 -435558489 435558489 435558487#0"/>
    </vehicle>
    <vehicle id="59" depart="1.18">
        <route edges="255623676#0 -312901457#3 -435558490 -435558487#1 -435558489"/>
    </vehicle>
    <vehicle id="60" depart="1.20">
        <route edges="435558489 435558487#0 435558490 435558486 435558485#0 435558493 435558492 56150114#0 435558495#0 -153273211#2 435542908 435542913#0"/>
    </vehicle>
    <vehicle id="61" depart="1.22">
        <route edges="435558489 435558487#0 435558490 435558486 435558485#0 435558493 435558492 56150114#0 435558495#0 -153273211#2 435542908 435542913#0"/>
    </vehicle>
    <vehicle id="62" depart="1.24">
        <route edges="-145826648#9 145826648#0"/>
    </vehicle>
    <vehicle id="63" depart="1.26">
        <route edges="-145826648#9 -24105922 435724076 983216734 435724067 435724068 435724070 315989544#1 867133912"/>
    </vehicle>
    <vehicle id="64" depart="1.28">
        <route edges="435724064 435724076 983216734 435724067"/>
    </vehicle>
    <vehicle id="66" depart="1.32">
        <route edges="435724064 435724076 983216734 435724067 435724068 435724070 315989544#1 867133913#0"/>
    </vehicle>
    <vehicle id="67" depart="1.34">
        <route edges="-145834820 -24105922 435724076 983216734 435724067 435724068 435724070 316907582#0"/>
    </vehicle>
    <vehicle id="68" depart="1.36">
        <route edges="-145834820 -24105922 488356723#1 24079931#0 435559508#0 435559513#0 23891121#0 435559509#0"/>
    </vehicle>
    <vehicle id="69" depart="1.38">
        <route edges="435558489 435558487#0 435558490 -312901457#1 435724068 435724070 315989544#1 -315989544#2"/>
    </vehicle>
    <vehicle id="72" depart="1.44">
        <route edges="149987524#0 -24105922 488356723#1 -435558493"/>
    </vehicle>
    <vehicle id="73" depart="1.46">
        <route edges="255370738#0 255370738#1 312901457#0 312901457#2 23891121#0 435559509#0"/>
    </vehicle>
    <vehicle id="74" depart="1.48">
        <route edges="-435558490 -435558487#1 -435558489 435558489 435558487#0 435558490 435558486 435558485#0 435558493 -488356723#2 24105922 145826648#0"/>
    </vehicle>
    <vehicle id="75" depart="1.50">
        <route edges="983216734 435724067 312901457#0 435558486 435558485#0 435558493 435558492"/>
    </vehicle>
    <vehicle id="76" depart="1.52">
        <route edges="149987524#0 -24105922 435724071 435542911 435542908"/>
    </vehicle>
    <vehicle id="78" depart="1.56">
        <route edges="-867133912 -315989544#2 255370738#1 255370738#2 435724064 488356723#1 435558492 56150114#0 435558495#0 435561333 314011257 435542917#0"/>
    </vehicle>
    <vehicle id="80" depart="1.60">
        <route edges="-145834820 -24105922 488356723#1 -435558493 -435558485#1 -435558486 435558486 435558485#0"/>
    </vehicle>
    <vehicle id="83" depart="1.66">
        <route edges="-435559503#1 -435561738#1 -235714536#1 235714536#0 435561738#0 435559503#0"/>
    </vehicle>
    <vehicle id="84" depart="1.68">
        <route edges="-435558493 -435558485#1 -435558486 -312901457#1 435724068 435724070 315989544#1 -315989544#2"/>
    </vehicle>
    <vehicle id="85" depart="1.70">
        <route edges="499084046#0 499084043#0 499084041#0 -153273211#2 435542908 435542913#0"/>
    </vehicle>
    <vehicle id="87" depart="1.74">
        <route edges="435558493 -435558493 -435558485#1 -435558486 -435558490 -435558487#1 -435558489"/>
    </vehicle>
    <vehicle id="88" depart="1.76">
        <route edges="-145834820 -24105922 435724076 983216734 435724067 255370738#2"/>
    </vehicle>
    <vehicle id="89" depart="1.78">
        <route edges="149987524#0 -24105922 435724076 983216734 435724067 435724068 435724070 316907582#0"/>
    </vehicle>
    <vehicle id="92" depart="1.84">
        <route edges="-867133913#1 -315989544#2 255370738#1 255370738#2 435724064 24105922 145826648#0"/>
    </vehicle>
    <vehicle id="93" depart="1.86">
        <route edges="435561333 314011257 435542917#0 -435542917#2 -708019074 -435561333 -435558495#1 -805354864 -435558492 -488356723#2 435724076 983216734 435724067 435724068 435724070 315989544#1 -514505609"/>
    </vehicle>
    <vehicle id="94" depart="1.88">
        <route edges="-435558486 312901457#2"/>
    </vehicle>
    <vehicle id="95" depart="1.90">
        <route edges="149987524#0 -24105922 435724076 983216734 435724067 435724068 435724070 315989544#1 -514505609"/>
    </vehicle>
    <vehicle id="97" depart="1.94">
        <route edges="149987524#0 -24105922 488356723#1"/>
    </vehicle>
    <vehicle id="98" depart="1.96">
        <route edges="255370738#0 255370738#1 255370738#2 435724064 24105922 -149987524#3"/>
    </vehicle>
    <vehicle id="99" depart="1.98">
        <route edges="983216734 435724067"/>
    </vehicle>
    <vehicle id="100" depart="2.00">
        <route edges="514505609 867133912"/>
    </vehicle>
    <vehicle id="101" depart="2.02">
        <route edges="435561331#0 435559511#0 435559510#0 435559508#0 435559513#0 -312901457#3 -435558490 -435558487#1 -435558489"/>
    </vehicle>
    <vehicle id="104" depart="2.08">
        <route edges="-867133913#1 867133913#0"/>
    </vehicle>
    <vehicle id="106" depart="2.12">
        <route edges="153273211#1 -435558495#1 -805354864 -435558492 -488356723#2 24105922"/>
    </vehicle>
    <vehicle id="107" depart="2.14">
        <route edges="514505609 -315989544#2 255370738#1 255370738#2 435724064 435724076 983216734"/>
    </vehicle>
    <vehicle id="108" depart="2.16">
        <route edges="255370738#0 255370738#1 255370738#2 435724064 488356723#1 24079931#0 435559508#0"/>
    </vehicle>
    <vehicle id="109" depart="2.18">
        <route edges="-435542917#2 -708019074 -435561333 -435558495#1 -805354864"/>
    </vehicle>
    <vehicle id="110" depart="2.20">
        <route edges="514505609 -315989544#2 255370738#1 255370738#2 435724064 488356723#1 435558492 56150114#0 435558495#0 435561333 314011257 435542917#0"/>
    </vehicle>
    <vehicle id="111" depart="2.22">
        <route edges="255370738#0 255370738#1 312901457#0 312901457#2 23891121#0 435559509#0"/>
    </vehicle>
    <vehicle id="112" depart="2.24">
        <route edges="-145834820 -24105922 488356723#1 435558492 56150114#0 435558495#0 435561333 314011257 435542917#0"/>
    </vehicle>
    <vehicle id="114" depart="2.28">
        <route edges="-435542917#2 -708019074 -435561333 -435558495#1 -805354864 -435558492 -488356723#2 435724076 983216734 435724067 435724068 435724070 315989544#1 867133913#0"/>
    </vehicle>
    <vehicle id="115" depart="2.30">
        <route edges="-145834820 -24105922 488356723#1 -435558493 -435558485#1 -435558486 -435558490 -435558487#1 -435558489"/>
    </vehicle>
    <vehicle id="118" depart="2.36">
        <route edges="435724068 435724070 315989544#1 -514505609"/>
    </vehicle>
    <vehicle id="119" depart="2.38">
        <route edges="255623676#0 499084046#0 499084043#0 499084041#0 435561333 314011257 435542917#0"/>
    </vehicle>
    <vehicle id="120" depart="2.40">
        <route edges="149987524#0 -24105922 488356723#1 435558492 56150114#0 435558495#0 435561333 314011257 435542917#0"/>
    </vehicle>
    <vehicle id="121" depart="2.42">
        <route edges="24105922 -24105922 435724076 983216734 435724067 435724068 435724070 315989544#1 867133912"/>
    </vehicle>
    <vehicle id="122" depart="2.44">
        <route edges="-435558492 24079931#0 435559508#0"/>
    </vehicle>
    <vehicle id="124" depart="2.48">
        <route edges="294592601#0 153273211#1 -435558495#1 -805354864"/>
    </vehicle>
    <vehicle id="125" depart="2.50">
        <route edges="-867133912 -315989544#2 255370738#1 312901457#0 312901457#2 23891121#0 435559509#0"/>
    </vehicle>
    <vehicle id="126" depart="2.52">
        <route edges="-145834820 -24105922 488356723#1 24079931#0 499084043#0 499084042#0 499084040#0 435561332#0 314011263#0"/>
    </vehicle>
    <vehicle id="127" depart="2.54">
        <route edges="983216734"/>
    </vehicle>
    <vehicle id="128" depart="2.56">
        <route edges="-145834820 -24105922 488356723#1 -435558493"/>
    </vehicle>
    <vehicle id="130" depart="2.60">
        <route edges="435724064 488356723#1 24079931#0 499084043#0"/>
    </vehicle>
    <vehicle id="131" depart="2.62">
        <route edges="-867133913#1 -315989544#2 255370738#1 312901457#0 -435558490 -435558487#1 -435558489"/>
    </vehicle>
    <vehicle id="133" depart="2.66">
        <route edges="255623676#0 -312901457#3 -312901457#1 435724068 435724070 315989544#1 867133913#0"/>
    </vehicle>
    <vehicle id="134" depart="2.68">
        <route edges="294592601#0 294592601#2 435724062 24105922 -149987524#3"/>
    </vehicle>
    <vehicle id="135" depart="2.70">
        <route edges="435559508#0 435559513#0 499084046#0 499084043#0 499084041#0 -435558495#1 -805354864"/>
    </vehicle>
    <vehicle id="136" depart="2.72">
        <route edges="294592601#0 294592601#2 435724062 435724076 983216734 435724067 435724068 435724070 315989544#1 867133912"/>
    </vehicle>
    <vehicle id="137" depart="2.74">
        <route edges="-435542917#2 -708019074 -435561333 -435558495#1 -805354864 -435558492 -488356723#2 24105922 -24105922"/>
    </vehicle>
    <vehicle id="138" depart="2.76">
        <route edges="-153273211#2 435542908 435542913#0"/>
    </vehicle>
    <vehicle id="139" depart="2.78">
        <route edges="-435561333 435561333 314011257 435542917#0"/>
    </vehicle>
    <vehicle id="140" depart="2.80">
        <route edges="315989544#1 -315989544#2 255370738#1 312901457#0 -435558490"/>
    </vehicle>
    <vehicle id="141" depart="2.82">
        <route edges="255623676#0 -312901457#3 -312901457#1 435724068 435724070 315989544#1 -514505609"/>
    </vehicle>
    <vehicle id="144" depart="2.88">
        <route edges="149987524#0 -24105922 435724076 983216734 435724067 435724068 435724070 315989544#1 -514505609"/>
    </vehicle>
    <vehicle id="145" depart="2.90">
        <route edges="-145826648#9 -24105922 488356723#1 24079931#0 499084043#0 435559511#0 435559510#0"/>
    </vehicle>
    <vehicle id="146" depart="2.92">
        <route edges="255623676#0 -312901457#3 -312901457#1 435724068 435724070 315989544#1 -514505609"/>
    </vehicle>
    <vehicle id="147" depart="2.94">
        <route edges="435558487#0 435558490 435558486 435558485#0 435558493 435558492 56150114#0 435558495#0 -153273211#2 435542908 435542913#0"/>
    </vehicle>
    <vehicle id="148" depart="2.96">
        <route edges="149987524#0 -149987524#3"/>
    </vehicle>
    <vehicle id="149" depart="2.98">
        <route edges="-145834820 -24105922 488356723#1 24079931#0 435559508#0 435559513#0 499084046#0"/>
    </vehicle>
    <vehicle id="150" depart="3.00">
        <route edges="435724076 983216734 435724067 255370738#2 435724064 435724071 435542911 435542908 435542913#0"/>
    </vehicle>
    <vehicle id="151" depart="3.02">
        <route edges="435559513#0 499084046#0 499084043#0 499084041#0 435561333 314011257 435542917#0"/>
    </vehicle>
    <vehicle id="152" depart="3.04">
        <route edges="-435542917#2 -708019074 -435561333 -499084041#2 435559511#0 435559510#0 435559508#0 435559513#0 -312901457#3"/>
    </vehicle>
    <vehicle id="153" depart="3.06">
        <route edges="-867133912 867133912"/>
    </vehicle>
    <vehicle id="154" depart="3.08">
        <route edges="435558490 435558486 435558485#0 435558493 -488356723#2 488356723#1"/>
    </vehicle>
    <vehicle id="155" depart="3.10">
        <route edges="435724071 435542911 153273211#1 -435558495#1 -805354864 -435558492 -435558493"/>
    </vehicle>
    <vehicle id="156" depart="3.12">
        <route edges="-435559503#1 -435561738#1 -235714536#1"/>
    </vehicle>
    <vehicle id="157" depart="3.14">
        <route edges="435558489 435558487#0 435558490 312901457#2 499084046#0"/>
    </vehicle>
    <vehicle id="158" depart="3.16">
        <route edges="149987524#0 -24105922 488356723#1 435558492 56150114#0 435558495#0 435561333 314011257 435542917#0"/>
    </vehicle>
    <vehicle id="159" depart="3.18">
        <route edges="-435542917#2 -708019074 -435561333 -435558495#1 -805354864 -435558492 -488356723#2 435724076 983216734 435724067 435724068 435724070 315989544#1 867133912"/>
    </vehicle>
    <vehicle id="160" depart="3.20">
        <route edges="435561334 499084040#0 435561332#0 314011263#0 435561324 435561322 435561331#0 435559511#0 435559510#0 435559508#0 435559513#0 -312901457#3 -312901457#1 435724068 435724070 315989544#1 867133913#0"/>
    </vehicle>
    <vehicle id="161" depart="3.22">
        <route edges="435558493 24079931#0 499084043#0"/>
    </vehicle>
    <vehicle id="162" depart="3.24">
        <route edges="-145826648#9 -24105922 488356723#1 24079931#0 435559508#0 435559513#0 23891121#0 435559509#0"/>
    </vehicle>
    <vehicle id="163" depart="3.26">
        <route edges="-867133912 867133912"/>
    </vehicle>
    <vehicle id="164" depart="3.28">
        <route edges="435558492 56150114#0 435558495#0 -499084041#2 499084042#0 499084040#0"/>
    </vehicle>
    <vehicle id="165" depart="3.30">
        <route edges="435558493 -488356723#2 435724076 983216734 435724067 435724068 435724070 315989544#1 -514505609"/>
    </vehicle>
    <vehicle id="166" depart="3.32">
        <route edges="435558489 435558487#0 435558490 312901457#2 499084046#0 -24079931#2"/>
    </vehicle>
    <vehicle id="168" depart="3.36">
        <route edges="-435559503#1 -435561738#1 -235714536#1 235714536#0 435561738#0"/>
    </vehicle>
    <vehicle id="171" depart="3.42">
        <route edges="-145826648#9 -24105922 488356723#1 -435558493 -435558485#1 -435558486 -435558490 -435558487#1 -435558489"/>
    </vehicle>
    <vehicle id="172" depart="3.44">
        <route edges="-867133912 -315989544#2 255370738#1 255370738#2 435724064 488356723#1 24079931#0 499084043#0 499084042#0 499084040#0"/>
    </vehicle>
    <vehicle id="173" depart="3.46">
        <route edges="514505609 -514505609"/>
    </vehicle>
    <vehicle id="174" depart="3.48">
        <route edges="294592601#0 294592601#2 435724062 24105922 145834820"/>
    </vehicle>
    <vehicle id="175" depart="3.50">
        <route edges="514505609 -315989544#2 255370738#1 255370738#2 435724064 435724071 435542911 435542908 435542913#0"/>
    </vehicle>
    <vehicle id="176" depart="3.52">
        <route edges="514505609 -315989544#2 255370738#1 255370738#2 435724064 24105922 -24105922"/>
    </vehicle>
    <vehicle id="177" depart="3.54">
        <route edges="514505609 -315989544#2 255370738#1 312901457#0 -435558490 -435558487#1 -435558489"/>
    </vehicle>
    <vehicle id="178" depart="3.56">
        <route edges="514505609 -514505609"/>
    </vehicle>
    <vehicle id="179" depart="3.58">
        <route edges="-24079931#2 435558492 56150114#0 435558495#0 -153273211#2 294592601#2"/>
    </vehicle>
    <vehicle id="180" depart="3.60">
        <route edges="435542911 294592601#2 435724062 24105922 145826648#0"/>
    </vehicle>
    <vehicle id="181" depart="3.62">
        <route edges="255623676#0 -312901457#3 -312901457#1 435724068 435724070 316907582#0"/>
    </vehicle>
    <vehicle id="182" depart="3.64">
        <route edges="-867133913#1 -315989544#2 255370738#1 255370738#2 435724064 488356723#1 435558492 56150114#0 435558495#0 435561333 314011257 435542917#0"/>
    </vehicle>
    <vehicle id="183" depart="3.66">
        <route edges="-435559503#1 -435561738#1 -235714536#1 235714536#0 435561738#0 435559503#0"/>
    </vehicle>
    <vehicle id="184" depart="3.68">
        <route edges="-145826648#9 -24105922 435724076 983216734 435724067 435724068 435724070 315989544#1 867133912"/>
    </vehicle>
    <vehicle id="185" depart="3.70">
        <route edges="255370738#0 255370738#1 312901457#0 312901457#2 23891121#0 435559509#0"/>
    </vehicle>
    <vehicle id="188" depart="3.76">
        <route edges="294592601#0 294592601#2 435724062 24105922 145826648#0"/>
    </vehicle>
    <vehicle id="189" depart="3.78">
        <route edges="-867133912 -315989544#2 255370738#1 255370738#2 435724064 435724071"/>
    </vehicle>
    <vehicle id="191" depart="3.82">
        <route edges="-867133912 -315989544#2 255370738#1 312901457#0 312901457#2 23891121#0"/>
    </vehicle>
    <vehicle id="192" depart="3.84">
        <route edges="-867133913#1 -315989544#2 255370738#1 255370738#2 435724064 488356723#1 435558492 56150114#0 435558495#0 435561333 314011257 435542917#0 -435542917#2 -708019074"/>
    </vehicle>
    <vehicle id="193" depart="3.86">
        <route edges="-312901457#3 -312901457#1 255370738#2 435724064 24105922"/>
    </vehicle>
    <vehicle id="195" depart="3.90">
        <route edges="435724071 435542911 153273211#1 435561333 314011257 435542917#0"/>
    </vehicle>
    <vehicle id="196" depart="3.92">
        <route edges="-805354864 -435558492 435558492 56150114#0 435558495#0 -153273211#2 435542908 435542913#0"/>
    </vehicle>
    <vehicle id="197" depart="3.94">
        <route edges="-145826648#9 -24105922 435724076 983216734 435724067 435724068 435724070 315989544#1 -514505609"/>
    </vehicle>
    <vehicle id="198" depart="3.96">
        <route edges="149987524#0 -24105922 488356723#1 435558492 56150114#0 435558495#0 435561333 314011257 435542917#0"/>
    </vehicle>
    <vehicle id="199" depart="3.98">
        <route edges="294592601#0 294592601#2 435724062 435724076 983216734 435724067 435724068 435724070 316907582#0"/>
    </vehicle>
    <vehicle id="200" depart="4.00">
        <route edges="149987524#0 -24105922 488356723#1 -435558493"/>
    </vehicle>
    <vehicle id="202" depart="4.04">
        <route edges="435558490 -435558490 -435558487#1 -435558489"/>
    </vehicle>
    <vehicle id="203" depart="4.06">
        <route edges="-145834820 -24105922 435724071 435542911 435542908"/>
    </vehicle>
    <vehicle id="204" depart="4.08">
        <route edges="255623676#0 499084046#0 -24079931#2 -488356723#2 24105922 145826648#0"/>
    </vehicle>
    <vehicle id="205" depart="4.10">
        <route edges="435559508#0 435559513#0 23891121#0 435559509#0"/>
    </vehicle>
    <vehicle id="207" depart="4.14">
        <route edges="-435558490 -435558487#1 -435558489 435558489 435558487#0 435558490 435558486 435558485#0 435558493 -488356723#2 24105922 -149987524#3"/>
    </vehicle>
    <vehicle id="210" depart="4.20">
        <route edges="149987524#0 -24105922 488356723#1 -435558493 -435558485#1 -435558486 435558486 435558485#0"/>
    </vehicle>
    <vehicle id="213" depart="4.26">
        <route edges="294592601#0 294592601#2 435724062 24105922 -149987524#3"/>
    </vehicle>
    <vehicle id="214" depart="4.28">
        <route edges="435558489 435558487#0 435558490 312901457#2 23891121#0 435559509#0"/>
    </vehicle>
    <vehicle id="215" depart="4.30">
        <route edges="-153273211#2 294592601#2 435724062 435724076 983216734 435724067 435724068 435724070 255370738#1"/>
    </vehicle>
    <vehicle id="216" depart="4.32">
        <route edges="-435542917#2 -708019074 -435561333 -435558495#1 -805354864 -435558492 -488356723#2 435724076 983216734 435724067 435724068 435724070 315989544#1 867133913#0"/>
    </vehicle>
    <vehicle id="217" depart="4.34">
        <route edges="24079931#0 -24079931#2 -488356723#2 24105922 -149987524#3"/>
    </vehicle>
    <vehicle id="219" depart="4.38">
        <route edges="153273211#1 -499084041#2 499084042#0 499084040#0 435561332#0"/>
    </vehicle>
    <vehicle id="220" depart="4.40">
        <route edges="294592601#0 294592601#2 435724062 435724076 983216734 435724067 435724068 435724070 315989544#1 867133913#0"/>
    </vehicle>
    <vehicle id="221" depart="4.42">
        <route edges="255623676#0 -312901457#3 -312901457#1 435724068 435724070 315989544#1 867133913#0"/>
    </vehicle>
    <vehicle id="222" depart="4.44">
        <route edges="435724068 435724070 255370738#1 255370738#2 435724064 488356723#1 435558492 56150114#0 435558495#0 435561333 314011257 435542917#0"/>
    </vehicle>
    <vehicle id="223" depart="4.46">
        <route edges="315989544#1 -315989544#2 316907582#0"/>
    </vehicle>
    <vehicle id="224" depart="4.48">
        <route edges="435559511#0 435559510#0 499084043#0 499084041#0 -153273211#2 435542908 435542913#0"/>
    </vehicle>
    <vehicle id="225" depart="4.50">
        <route edges="435724070 255370738#1 312901457#0 312901457#2 23891121#0 435559509#0"/>
    </vehicle>
    <vehicle id="228" depart="4.56">
        <route edges="435558489 435558487#0 435558490 -312901457#1 255370738#2 435724064 435724071 435542911"/>
    </vehicle>
    <vehicle id="229" depart="4.58">
        <route edges="255623676#0 -312901457#3 -312901457#1 435724068 435724070 315989544#1 -514505609"/>
    </vehicle>
    <vehicle id="230" depart="4.60">
        <route edges="-145834820 -24105922 435724076 983216734 435724067 435724068 435724070 315989544#1 -514505609"/>
    </vehicle>
    <vehicle id="231" depart="4.62">
        <route edges="-435561333 -435558495#1 -805354864 -435558492 -488356723#2 24105922 145826648#0"/>
    </vehicle>
    <vehicle id="232" depart="4.64">
        <route edges="255370738#0 255370738#1 255370738#2 435724064 488356723#1 -435558493 -435558485#1 -435558486"/>
    </vehicle>
    <vehicle id="233" depart="4.66">
        <route edges="-435559503#1 -435561738#1 -235714536#1 235714536#0 435561738#0 435559503#0"/>
    </vehicle>
    <vehicle id="235" depart="4.70">
        <route edges="149987524#0 -24105922 435724071 435542911 435542908 435542913#0"/>
    </vehicle>
    <vehicle id="236" depart="4.72">
        <route edges="149987524#0 -24105922 488356723#1 435558492 56150114#0 435558495#0 -435558495#1 -805354864 -435558492"/>
    </vehicle>
    <vehicle id="237" depart="4.74">
        <route edges="149987524#0 -24105922 435724076 983216734 435724067 435724068 435724070 315989544#1 867133912"/>
    </vehicle>
    <vehicle id="239" depart="4.78">
        <route edges="435561332#0 314011263#0 435561324 435561322 435561331#0 435559511#0 435559510#0 435559508#0 435559513#0 23891121#0 435559509#0"/>
    </vehicle>
    <vehicle id="240" depart="4.80">
        <route edges="-867133913#1 -315989544#2 255370738#1 255370738#2 435724064 24105922 -149987524#3"/>
    </vehicle>
    <vehicle id="241" depart="4.82">
        <route edges="-867133912 -315989544#2 255370738#1 312901457#0 312901457#2 23891121#0 435559509#0"/>
    </vehicle>
    <vehicle id="242" depart="4.84">