<?xml version="1.0" encoding="UTF-8"?>
<!-- generated on 2021-11-15 21:52:44.795357 by $Id$ v1.8.0-0000000000
  options: -n iit.net.xml <doubleminus>fringe-factor 10 -b 0 -e 10 -p 0.02 <doubleminus>route-file iit.rou.xml
-->
<routes xmlns:xsi="http://www.w3.org/2001/XMLSchema-instance" xsi:noNamespaceSchemaLocation="http://sumo.dlr.de/xsd/routes_file.xsd">
    <trip id="0" depart="0.00" from="294592601#0" to="-149987524#3"/>
    <trip id="1" depart="0.02" from="-435561333" to="-435561333"/>
    <trip id="2" depart="0.04" from="435558486" to="435559503#0"/>
    <trip id="3" depart="0.06" from="435724068" to="-235714536#1"/>
    <trip id="4" depart="0.08" from="149987524#0" to="-149987524#3"/>
    <trip id="5" depart="0.10" from="-435558495#1" to="316907582#0"/>
    <trip id="6" depart="0.12" from="-145826648#9" to="-435558489"/>
    <trip id="7" depart="0.14" from="294592601#0" to="435542913#0"/>
    <trip id="8" depart="0.16" from="-435559503#1" to="435542917#0"/>
    <trip id="9" depart="0.18" from="435558493" to="-149987524#3"/>
    <trip id="10" depart="0.20" from="435558492" to="435559503#0"/>
    <trip id="11" depart="0.22" from="-867133912" to="-435558489"/>
    <trip id="12" depart="0.24" from="514505609" to="145826648#0"/>
    <trip id="13" depart="0.26" from="-145834820" to="-235714536#1"/>
    <trip id="14" depart="0.28" from="435561331#0" to="435542917#0"/>
    <trip id="15" depart="0.30" from="435558493" to="435559509#0"/>
    <trip id="16" depart="0.32" from="255370738#0" to="867133913#0"/>
    <trip id="17" depart="0.34" from="-867133913#1" to="435542913#0"/>
    <trip id="18" depart="0.36" from="435559511#0" to="435542917#0"/>
    <trip id="19" depart="0.38" from="435561333" to="435542917#0"/>
    <trip id="20" depart="0.40" from="314011257" to="-149987524#3"/>
    <trip id="21" depart="0.42" from="-435559503#1" to="-514505609"/>
    <trip id="22" depart="0.44" from="-145834820" to="-488356723#2"/>
    <trip id="23" depart="0.46" from="-145834820" to="-514505609"/>
    <trip id="24" depart="0.48" from="255623676#0" to="145834820"/>
    <trip id="25" depart="0.50" from="-867133913#1" to="-435558493"/>
    <trip id="26" depart="0.52" from="-435559503#1" to="867133912"/>
    <trip id="27" depart="0.54" from="294592601#0" to="435542917#0"/>
    <trip id="28" depart="0.56" from="-435542917#2" to="435559509#0"/>
    <trip id="29" depart="0.58" from="-435542917#2" to="145834820"/>
    <trip id="30" depart="0.60" from="514505609" to="435558487#0"/>
    <trip id="31" depart="0.62" from="255370738#0" to="435559503#0"/>
    <trip id="32" depart="0.64" from="435561324" to="435559511#0"/>
    <trip id="33" depart="0.66" from="-435559503#1" to="-149987524#3"/>
    <trip id="34" depart="0.68" from="-867133912" to="-514505609"/>
    <trip id="35" depart="0.70" from="-435558493" to="867133912"/>
    <trip id="36" depart="0.72" from="435724062" to="145826648#0"/>
    <trip id="37" depart="0.74" from="294592601#0" to="145834820"/>
    <trip id="38" depart="0.76" from="499084040#0" to="314011263#0"/>
    <trip id="39" depart="0.78" from="-435559503#1" to="-514505609"/>
    <trip id="40" depart="0.80" from="255370738#0" to="-514505609"/>
    <trip id="41" depart="0.82" from="255370738#2" to="867133912"/>
    <trip id="42" depart="0.84" from="-867133913#1" to="-435558495#1"/>
    <trip id="43" depart="0.86" from="983216734" to="316907582#0"/>
    <trip id="44" depart="0.88" from="-145834820" to="-149987524#3"/>
    <trip id="45" depart="0.90" from="-24079931#2" to="435542917#0"/>
    <trip id="46" depart="0.92" from="435558489" to="24105922"/>
    <trip id="47" depart="0.94" from="-145834820" to="145834820"/>
    <trip id="48" depart="0.96" from="983216734" to="435542913#0"/>
    <trip id="49" depart="0.98" from="514505609" to="488356723#1"/>
    <trip id="50" depart="1.00" from="-145826648#9" to="435559509#0"/>
    <trip id="51" depart="1.02" from="294592601#0" to="435542913#0"/>
    <trip id="52" depart="1.04" from="-435559503#1" to="435558487#0"/>
    <trip id="53" depart="1.06" from="-24079931#2" to="294592601#2"/>
    <trip id="54" depart="1.08" from="149987524#0" to="867133913#0"/>
    <trip id="55" depart="1.10" from="435724062" to="-514505609"/>
    <trip id="56" depart="1.12" from="235714536#0" to="-435558489"/>
    <trip id="57" depart="1.14" from="488356723#1" to="499084041#0"/>
    <trip id="58" depart="1.16" from="-805354864" to="435558487#0"/>
    <trip id="59" depart="1.18" from="255623676#0" to="-435558489"/>
    <trip id="60" depart="1.20" from="435558489" to="435542913#0"/>
    <trip id="61" depart="1.22" from="435558489" to="435542913#0"/>
    <trip id="62" depart="1.24" from="-145826648#9" to="145826648#0"/>
    <trip id="63" depart="1.26" from="-145826648#9" to="867133912"/>
    <trip id="64" depart="1.28" from="435724064" to="435724067"/>
    <trip id="65" depart="1.30" from="-867133912" to="-235714536#1"/>
    <trip id="66" depart="1.32" from="435724064" to="867133913#0"/>
    <trip id="67" depart="1.34" from="-145834820" to="316907582#0"/>
    <trip id="68" depart="1.36" from="-145834820" to="435559509#0"/>
    <trip id="69" depart="1.38" from="435558489" to="-315989544#2"/>
    <trip id="70" depart="1.40" from="235714536#0" to="435542913#0"/>
    <trip id="71" depart="1.42" from="-435559503#1" to="499084041#0"/>
    <trip id="72" depart="1.44" from="149987524#0" to="-435558493"/>
    <trip id="73" depart="1.46" from="255370738#0" to="435559509#0"/>
    <trip id="74" depart="1.48" from="-435558490" to="145826648#0"/>
    <trip id="75" depart="1.50" from="983216734" to="435558492"/>
    <trip id="76" depart="1.52" from="149987524#0" to="435542908"/>
    <trip id="77" depart="1.54" from="-312901457#1" to="-435561738#1"/>
    <trip id="78" depart="1.56" from="-867133912" to="435542917#0"/>
    <trip id="79" depart="1.58" from="-435559503#1" to="-435561333"/>
    <trip id="80" depart="1.60" from="-145834820" to="435558485#0"/>
    <trip id="81" depart="1.62" from="-435559503#1" to="867133912"/>
    <trip id="82" depart="1.64" from="435561333" to="-235714536#1"/>
    <trip id="83" depart="1.66" from="-435559503#1" to="435559503#0"/>
    <trip id="84" depart="1.68" from="-435558493" to="-315989544#2"/>
    <trip id="85" depart="1.70" from="499084046#0" to="435542913#0"/>
    <trip id="86" depart="1.72" from="235714536#0" to="435559513#0"/>
    <trip id="87" depart="1.74" from="435558493" to="-435558489"/>
    <trip id="88" depart="1.76" from="-145834820" to="255370738#2"/>
    <trip id="89" depart="1.78" from="149987524#0" to="316907582#0"/>
    <trip id="90" depart="1.80" from="435542911" to="435559503#0"/>
    <trip id="91" depart="1.82" from="514505609" to="-235714536#1"/>
    <trip id="92" depart="1.84" from="-867133913#1" to="145826648#0"/>
    <trip id="93" depart="1.86" from="435561333" to="-514505609"/>
    <trip id="94" depart="1.88" from="-435558486" to="312901457#2"/>
    <trip id="95" depart="1.90" from="149987524#0" to="-514505609"/>
    <trip id="96" depart="1.92" from="-435559503#1" to="867133912"/>
    <trip id="97" depart="1.94" from="149987524#0" to="488356723#1"/>
    <trip id="98" depart="1.96" from="255370738#0" to="-149987524#3"/>
    <trip id="99" depart="1.98" from="983216734" to="435724067"/>
    <trip id="100" depart="2.00" from="514505609" to="867133912"/>
    <trip id="101" depart="2.02" from="435561331#0" to="-435558489"/>
    <trip id="102" depart="2.04" from="235714536#0" to="-435558493"/>
    <trip id="103" depart="2.06" from="-867133913#1" to="-235714536#1"/>
    <trip id="104" depart="2.08" from="-867133913#1" to="867133913#0"/>
    <trip id="105" depart="2.10" from="-435559503#1" to="435559513#0"/>
    <trip id="106" depart="2.12" from="153273211#1" to="24105922"/>
    <trip id="107" depart="2.14" from="514505609" to="983216734"/>
    <trip id="108" depart="2.16" from="255370738#0" to="435559508#0"/>
    <trip id="109" depart="2.18" from="-435542917#2" to="-805354864"/>
    <trip id="110" depart="2.20" from="514505609" to="435542917#0"/>
    <trip id="111" depart="2.22" from="255370738#0" to="435559509#0"/>
    <trip id="112" depart="2.24" from="-145834820" to="435542917#0"/>
    <trip id="113" depart="2.26" from="235714536#0" to="435724076"/>
    <trip id="114" depart="2.28" from="-435542917#2" to="867133913#0"/>
    <trip id="115" depart="2.30" from="-145834820" to="-435558489"/>
    <trip id="116" depart="2.32" from="255623676#0" to="435559503#0"/>
    <trip id="117" depart="2.34" from="-435559503#1" to="-312901457#1"/>
    <trip id="118" depart="2.36" from="435724068" to="-514505609"/>
    <trip id="119" depart="2.38" from="255623676#0" to="435542917#0"/>
    <trip id="120" depart="2.40" from="149987524#0" to="435542917#0"/>
    <trip id="121" depart="2.42" from="24105922" to="867133912"/>
    <trip id="122" depart="2.44" from="-435558492" to="435559508#0"/>
    <trip id="123" depart="2.46" from="-435559503#1" to="145834820"/>
    <trip id="124" depart="2.48" from="294592601#0" to="-805354864"/>
    <trip id="125" depart="2.50" from="-867133912" to="435559509#0"/>
    <trip id="126" depart="2.52" from="-145834820" to="314011263#0"/>
    <trip id="127" depart="2.54" from="983216734" to="983216734"/>
    <trip id="128" depart="2.56" from="-145834820" to="-435558493"/>
    <trip id="129" depart="2.58" from="-435559503#1" to="867133912"/>
    <trip id="130" depart="2.60" from="435724064" to="499084043#0"/>
    <trip id="131" depart="2.62" from="-867133913#1" to="-435558489"/>
    <trip id="132" depart="2.64" from="435559513#0" to="435559503#0"/>
    <trip id="133" depart="2.66" from="255623676#0" to="867133913#0"/>
    <trip id="134" depart="2.68" from="294592601#0" to="-149987524#3"/>
    <trip id="135" depart="2.70" from="435559508#0" to="-805354864"/>
    <trip id="136" depart="2.72" from="294592601#0" to="867133912"/>
    <trip id="137" depart="2.74" from="-435542917#2" to="-24105922"/>
    <trip id="138" depart="2.76" from="-153273211#2" to="435542913#0"/>
    <trip id="139" depart="2.78" from="-435561333" to="435542917#0"/>
    <trip id="140" depart="2.80" from="315989544#1" to="-435558490"/>
    <trip id="141" depart="2.82" from="255623676#0" to="-514505609"/>
    <trip id="142" depart="2.84" from="235714536#0" to="867133912"/>
    <trip id="143" depart="2.86" from="435561324" to="-235714536#1"/>
    <trip id="144" depart="2.88" from="149987524#0" to="-514505609"/>
    <trip id="145" depart="2.90" from="-145826648#9" to="435559510#0"/>
    <trip id="146" depart="2.92" from="255623676#0" to="-514505609"/>
    <trip id="147" depart="2.94" from="435558487#0" to="435542913#0"/>
    <trip id="148" depart="2.96" from="149987524#0" to="-149987524#3"/>
    <trip id="149" depart="2.98" from="-145834820" to="499084046#0"/>
    <trip id="150" depart="3.00" from="435724076" to="435542913#0"/>
    <trip id="151" depart="3.02" from="435559513#0" to="435542917#0"/>
    <trip id="152" depart="3.04" from="-435542917#2" to="-312901457#3"/>
    <trip id="153" depart="3.06" from="-867133912" to="867133912"/>
    <trip id="154" depart="3.08" from="435558490" to="488356723#1"/>
    <trip id="155" depart="3.10" from="435724071" to="-435558493"/>
    <trip id="156" depart="3.12" from="-435559503#1" to="-235714536#1"/>
    <trip id="157" depart="3.14" from="435558489" to="499084046#0"/>
    <trip id="158" depart="3.16" from="149987524#0" to="435542917#0"/>
    <trip id="159" depart="3.18" from="-435542917#2" to="867133912"/>
    <trip id="160" depart="3.20" from="435561334" to="867133913#0"/>
    <trip id="161" depart="3.22" from="435558493" to="499084043#0"/>
    <trip id="162" depart="3.24" from="-145826648#9" to="435559509#0"/>
    <trip id="163" depart="3.26" from="-867133912" to="867133912"/>
    <trip id="164" depart="3.28" from="435558492" to="499084040#0"/>
    <trip id="165" depart="3.30" from="435558493" to="-514505609"/>
    <trip id="166" depart="3.32" from="435558489" to="-24079931#2"/>
    <trip id="167" depart="3.34" from="435561738#0" to="488356723#1"/>
    <trip id="168" depart="3.36" from="-435559503#1" to="435561738#0"/>
    <trip id="169" depart="3.38" from="235714536#0" to="145826648#0"/>
    <trip id="170" depart="3.40" from="435558489" to="-435561738#1"/>
    <trip id="171" depart="3.42" from="-145826648#9" to="-435558489"/>
    <trip id="172" depart="3.44" from="-867133912" to="499084040#0"/>
    <trip id="173" depart="3.46" from="514505609" to="-514505609"/>
    <trip id="174" depart="3.48" from="294592601#0" to="145834820"/>
    <trip id="175" depart="3.50" from="514505609" to="435542913#0"/>
    <trip id="176" depart="3.52" from="514505609" to="-24105922"/>
    <trip id="177" depart="3.54" from="514505609" to="-435558489"/>
    <trip id="178" depart="3.56" from="514505609" to="-514505609"/>
    <trip id="179" depart="3.58" from="-24079931#2" to="294592601#2"/>
    <trip id="180" depart="3.60" from="435542911" to="145826648#0"/>
    <trip id="181" depart="3.62" from="255623676#0" to="316907582#0"/>
    <trip id="182" depart="3.64" from="-867133913#1" to="435542917#0"/>
    <trip id="183" depart="3.66" from="-435559503#1" to="435559503#0"/>
    <trip id="184" depart="3.68" from="-145826648#9" to="867133912"/>
    <trip id="185" depart="3.70" from="255370738#0" to="435559509#0"/>
    <trip id="186" depart="3.72" from="435558487#0" to="435559503#0"/>
    <trip id="187" depart="3.74" from="-867133913#1" to="-235714536#1"/>
    <trip id="188" depart="3.76" from="294592601#0" to="145826648#0"/>
    <trip id="189" depart="3.78" from="-867133912" to="435724071"/>
    <trip id="190" depart="3.80" from="435542908" to="-805354864"/>
    <trip id="191" depart="3.82" from="-867133912" to="23891121#0"/>
    <trip id="192" depart="3.84" from="-867133913#1" to="-708019074"/>
    <trip id="193" depart="3.86" from="-312901457#3" to="24105922"/>
    <trip id="194" depart="3.88" from="514505609" to="435559503#0"/>
    <trip id="195" depart="3.90" from="435724071" to="435542917#0"/>
    <trip id="196" depart="3.92" from="-805354864" to="435542913#0"/>
    <trip id="197" depart="3.94" from="-145826648#9" to="-514505609"/>
    <trip id="198" depart="3.96" from="149987524#0" to="435542917#0"/>
    <trip id="199" depart="3.98" from="294592601#0" to="316907582#0"/>
    <trip id="200" depart="4.00" from="149987524#0" to="-435558493"/>
    <trip id="201" depart="4.02" from="235714536#0" to="867133912"/>
    <trip id="202" depart="4.04" from="435558490" to="-435558489"/>
    <trip id="203" depart="4.06" from="-145834820" to="435542908"/>
    <trip id="204" depart="4.08" from="255623676#0" to="145826648#0"/>
    <trip id="205" depart="4.10" from="435559508#0" to="435559509#0"/>
    <trip id="206" depart="4.12" from="294592601#0" to="-435561738#1"/>
    <trip id="207" depart="4.14" from="-435558490" to="-149987524#3"/>
    <trip id="208" depart="4.16" from="-435559503#1" to="316907582#0"/>
    <trip id="209" depart="4.18" from="435561331#0" to="-235714536#1"/>
    <trip id="210" depart="4.20" from="149987524#0" to="435558485#0"/>
    <trip id="211" depart="4.22" from="-435558487#1" to="435559503#0"/>
    <trip id="212" depart="4.24" from="235714536#0" to="-514505609"/>
    <trip id="213" depart="4.26" from="294592601#0" to="-149987524#3"/>
    <trip id="214" depart="4.28" from="435558489" to="435559509#0"/>
    <trip id="215" depart="4.30" from="-153273211#2" to="255370738#1"/>
    <trip id="216" depart="4.32" from="-435542917#2" to="867133913#0"/>
    <trip id="217" depart="4.34" from="24079931#0" to="-149987524#3"/>
    <trip id="218" depart="4.36" from="-435559503#1" to="435724071"/>
    <trip id="219" depart="4.38" from="153273211#1" to="435561332#0"/>
    <trip id="220" depart="4.40" from="294592601#0" to="867133913#0"/>
    <trip id="221" depart="4.42" from="255623676#0" to="867133913#0"/>
    <trip id="222" depart="4.44" from="435724068" to="435542917#0"/>
    <trip id="223" depart="4.46" from="315989544#1" to="316907582#0"/>
    <trip id="224" depart="4.48" from="435559511#0" to="435542913#0"/>
    <trip id="225" depart="4.50" from="435724070" to="435559509#0"/>
    <trip id="226" depart="4.52" from="235714536#0" to="-514505609"/>
    <trip id="227" depart="4.54" from="-435559503#1" to="435558486"/>
    <trip id="228" depart="4.56" from="435558489" to="435542911"/>
    <trip id="229" depart="4.58" from="255623676#0" to="-514505609"/>
    <trip id="230" depart="4.60" from="-145834820" to="-514505609"/>
    <trip id="231" depart="4.62" from="-435561333" to="145826648#0"/>
    <trip id="232" depart="4.64" from="255370738#0" to="-435558486"/>
    <trip id="233" depart="4.66" from="-435559503#1" to="435559503#0"/>
    <trip id="234" depart="4.68" from="314011257" to="-235714536#1"/>
    <trip id="235" depart="4.70" from="149987524#0" to="435542913#0"/>
    <trip id="236" depart="4.72" from="149987524#0" to="-435558492"/>
    <trip id="237" depart="4.74" from="149987524#0" to="867133912"/>
    <trip id="238" depart="4.76" from="255370738#2" to="435559503#0"/>
    <trip id="239" depart="4.78" from="435561332#0" to="435559509#0"/>
    <trip id="240" depart="4.80" from="-867133913#1" to="-149987524#3"/>
    <trip id="241" depart="4.82" from="-867133912" to="435559509#0"/>
    <trip id="242" depart="4.84" from="435561332#0" to="867133913#0"/>
    <trip id="243" depart="4.86" from="149987524#0" to="435559509#0"/>
    <trip id="244" depart="4.88" from="255370738#0" to="435542917#0"/>
    <trip id="245" depart="4.90" from="-435559503#1" to="-435561333"/>
    <trip id="246" depart="4.92" from="149987524#0" to="-149987524#3"/>
    <trip id="247" depart="4.94" from="-867133912" to="435559503#0"/>
    <trip id="248" depart="4.96" from="149987524#0" to="-435558489"/>
    <trip id="249" depart="4.98" from="235714536#0" to="-315989544#2"/>
    <trip id="250" depart="5.00" from="255623676#0" to="-149987524#3"/>
    <trip id="251" depart="5.02" from="-867133913#1" to="435542913#0"/>
    <trip id="252" depart="5.04" from="-145826648#9" to="435558487#0"/>
    <trip id="253" depart="5.06" from="-435542917#2" to="315989544#1"/>
    <trip id="254" depart="5.08" from="-145826648#9" to="145834820"/>
    <trip id="255" depart="5.10" from="-435558493" to="145826648#0"/>
    <trip id="256" depart="5.12" from="435558489" to="145834820"/>
    <trip id="257" depart="5.14" from="435558489" to="435724067"/>
    <trip id="258" depart="5.16" from="-435559503#1" to="-235714536#1"/>
    <trip id="259" depart="5.18" from="-145826648#9" to="435542913#0"/>
    <trip id="260" depart="5.20" from="983216734" to="145826648#0"/>
    <trip id="261" depart="5.22" from="294592601#0" to="435559513#0"/>
    <trip id="262" depart="5.24" from="294592601#0" to="435559509#0"/>
    <trip id="263" depart="5.26" from="514505609" to="-435558490"/>
    <trip id="264" depart="5.28" from="-145826648#9" to="-435558489"/>
    <trip id="265" depart="5.30" from="-312901457#3" to="435559503#0"/>
    <trip id="266" depart="5.32" from="255370738#0" to="-435558495#1"/>
    <trip id="267" depart="5.34" from="312901457#2" to="435559509#0"/>
    <trip id="268" depart="5.36" from="-435542917#2" to="435542917#0"/>
    <trip id="269" depart="5.38" from="435558489" to="-24105922"/>
    <trip id="270" depart="5.40" from="435559508#0" to="867133913#0"/>
    <trip id="271" depart="5.42" from="-24079931#2" to="-149987524#3"/>
    <trip id="272" depart="5.44" from="-867133912" to="435559503#0"/>
    <trip id="273" depart="5.46" from="514505609" to="145834820"/>
    <trip id="274" depart="5.48" from="315989544#1" to="-235714536#1"/>
    <trip id="275" depart="5.50" from="294592601#2" to="435542917#0"/>
    <trip id="276" depart="5.52" from="-145834820" to="435559510#0"/>
    <trip id="277" depart="5.54" from="435561331#0" to="435542917#0"/>
    <trip id="278" depart="5.56" from="-312901457#1" to="867133913#0"/>
    <trip id="279" depart="5.58" from="435558489" to="145826648#0"/>
    <trip id="280" depart="5.60" from="149987524#0" to="145834820"/>
    <trip id="281" depart="5.62" from="235714536#0" to="145826648#0"/>
    <trip id="282" depart="5.64" from="435561331#0" to="435724062"/>
    <trip id="283" depart="5.66" from="-153273211#2" to="867133913#0"/>
    <trip id="284" depart="5.68" from="255623676#0" to="435724064"/>
    <trip id="285" depart="5.70" from="314011257" to="294592601#2"/>
    <trip id="286" depart="5.72" from="435558485#0" to="867133913#0"/>
    <trip id="287" depart="5.74" from="-435559503#1" to="435561333"/>
    <trip id="288" depart="5.76" from="255370738#0" to="316907582#0"/>
    <trip id="289" depart="5.78" from="149987524#0" to="435559509#0"/>
    <trip id="290" depart="5.80" from="-435559503#1" to="435724071"/>
    <trip id="291" depart="5.82" from="435559511#0" to="-235714536#1"/>
    <trip id="292" depart="5.84" from="435724064" to="-514505609"/>
    <trip id="293" depart="5.86" from="235714536#0" to="435542917#0"/>
    <trip id="294" depart="5.88" from="-867133913#1" to="-149987524#3"/>
    <trip id="295" depart="5.90" from="435561331#0" to="-435558489"/>
    <trip id="296" depart="5.92" from="-435558493" to="435561331#0"/>
    <trip id="297" depart="5.94" from="-867133912" to="499084043#0"/>
    <trip id="298" depart="5.96" from="312901457#2" to="-514505609"/>
    <trip id="299" depart="5.98" from="-145826648#9" to="867133913#0"/>
    <trip id="300" depart="6.00" from="-145834820" to="435559509#0"/>
    <trip id="301" depart="6.02" from="235714536#0" to="435559509#0"/>
    <trip id="302" depart="6.04" from="294592601#2" to="435558490"/>
    <trip id="303" depart="6.06" from="235714536#0" to="435561324"/>
    <trip id="304" depart="6.08" from="-145834820" to="-435561333"/>
    <trip id="305" depart="6.10" from="294592601#2" to="145826648#0"/>
    <trip id="306" depart="6.12" from="255370738#1" to="316907582#0"/>
    <trip id="307" depart="6.14" from="255370738#0" to="255370738#1"/>
    <trip id="308" depart="6.16" from="435558489" to="145826648#0"/>
    <trip id="309" depart="6.18" from="312901457#2" to="-514505609"/>
    <trip id="310" depart="6.20" from="-435559503#1" to="-312901457#1"/>
    <trip id="311" depart="6.22" from="-435558486" to="-312901457#1"/>
    <trip id="312" depart="6.24" from="255370738#0" to="435559509#0"/>
    <trip id="313" depart="6.26" from="-435558485#1" to="-435558495#1"/>
    <trip id="314" depart="6.28" from="235714536#0" to="435559509#0"/>
    <trip id="315" depart="6.30" from="514505609" to="435542911"/>
    <trip id="316" depart="6.32" from="-488356723#2" to="-235714536#1"/>
    <trip id="317" depart="6.34" from="-435558487#1" to="-435561738#1"/>
    <trip id="318" depart="6.36" from="-435542917#2" to="-149987524#3"/>
    <trip id="319" depart="6.38" from="255370738#0" to="-514505609"/>
    <trip id="320" depart="6.40" from="514505609" to="435542913#0"/>
    <trip id="321" depart="6.42" from="312901457#0" to="-312901457#3"/>
    <trip id="322" depart="6.44" from="435561738#0" to="316907582#0"/>
    <trip id="323" depart="6.46" from="435724062" to="435542913#0"/>
    <trip id="324" depart="6.48" from="235714536#0" to="312901457#0"/>
    <trip id="325" depart="6.50" from="-435558485#1" to="-153273211#2"/>
    <trip id="326" depart="6.52" from="514505609" to="316907582#0"/>
    <trip id="327" depart="6.54" from="435559510#0" to="145834820"/>
    <trip id="328" depart="6.56" from="-145834820" to="435558485#0"/>
    <trip id="329" depart="6.58" from="-145834820" to="-435558489"/>
    <trip id="330" depart="6.60" from="255370738#0" to="145826648#0"/>
    <trip id="331" depart="6.62" from="56150114#0" to="-312901457#1"/>
    <trip id="332" depart="6.64" from="435558489" to="435542917#0"/>
    <trip id="333" depart="6.66" from="435558489" to="-435561738#1"/>
    <trip id="334" depart="6.68" from="24105922" to="314011257"/>
    <trip id="335" depart="6.70" from="149987524#0" to="488356723#1"/>
    <trip id="336" depart="6.72" from="56150114#0" to="145826648#0"/>
    <trip id="337" depart="6.74" from="255623676#0" to="435542917#0"/>
    <trip id="338" depart="6.76" from="435558487#0" to="867133913#0"/>
    <trip id="339" depart="6.78" from="-435558492" to="-435558493"/>
    <trip id="340" depart="6.80" from="294592601#0" to="-435558489"/>
    <trip id="341" depart="6.82" from="-435542917#2" to="-235714536#1"/>
    <trip id="342" depart="6.84" from="-145826648#9" to="314011257"/>
    <trip id="343" depart="6.86" from="255623676#0" to="-708019074"/>
    <trip id="344" depart="6.88" from="-435559503#1" to="435559503#0"/>
    <trip id="345" depart="6.90" from="312901457#2" to="314011257"/>
    <trip id="346" depart="6.92" from="294592601#0" to="867133912"/>
    <trip id="347" depart="6.94" from="435558489" to="435542917#0"/>
    <trip id="348" depart="6.96" from="294592601#0" to="867133912"/>
    <trip id="349" depart="6.98" from="149987524#0" to="435542913#0"/>
    <trip id="350" depart="7.00" from="294592601#0" to="867133912"/>
    <trip id="351" depart="7.02" from="435559511#0" to="-235714536#1"/>
    <trip id="352" depart="7.04" from="-435542917#2" to="145826648#0"/>
    <trip id="353" depart="7.06" from="435558489" to="435542913#0"/>
    <trip id="354" depart="7.08" from="-499084041#2" to="-312901457#3"/>
    <trip id="355" depart="7.10" from="294592601#0" to="435559503#0"/>
    <trip id="356" depart="7.12" from="514505609" to="316907582#0"/>
    <trip id="357" depart="7.14" from="235714536#0" to="-235714536#1"/>
    <trip id="358" depart="7.16" from="-145826648#9" to="255370738#2"/>
    <trip id="359" depart="7.18" from="-867133912" to="-514505609"/>
    <trip id="360" depart="7.20" from="-145834820" to="867133913#0"/>
    <trip id="361" depart="7.22" from="435559513#0" to="435542913#0"/>
    <trip id="362" depart="7.24" from="514505609" to="983216734"/>
    <trip id="363" depart="7.26" from="294592601#0" to="-514505609"/>
    <trip id="364" depart="7.28" from="-145826648#9" to="435559509#0"/>
    <trip id="365" depart="7.30" from="235714536#0" to="435558492"/>
    <trip id="366" depart="7.32" from="499084040#0" to="-435558489"/>
    <trip id="367" depart="7.34" from="255370738#2" to="435558486"/>
    <trip id="368" depart="7.36" from="235714536#0" to="-235714536#1"/>
    <trip id="369" depart="7.38" from="-867133912" to="145826648#0"/>
    <trip id="370" depart="7.40" from="294592601#0" to="488356723#1"/>
    <trip id="371" depart="7.42" from="-867133912" to="435559503#0"/>
    <trip id="372" depart="7.44" from="-499084041#2" to="867133913#0"/>
    <trip id="373" depart="7.46" from="435558495#0" to="435542913#0"/>
    <trip id="374" depart="7.48" from="153273211#1" to="145826648#0"/>
    <trip id="375" depart="7.50" from="-867133912" to="867133913#0"/>
    <trip id="376" depart="7.52" from="149987524#0" to="316907582#0"/>
    <trip id="377" depart="7.54" from="514505609" to="435558493"/>
    <trip id="378" depart="7.56" from="255370738#0" to="23891121#0"/>
    <trip id="379" depart="7.58" from="-435558485#1" to="145834820"/>
    <trip id="380" depart="7.60" from="435558489" to="435542917#0"/>
    <trip id="381" depart="7.62" from="435558489" to="-435558490"/>
    <trip id="382" depart="7.64" from="255370738#0" to="867133912"/>
    <trip id="383" depart="7.66" from="149987524#0" to="435559503#0"/>
    <trip id="384" depart="7.68" from="-312901457#1" to="867133913#0"/>
    <trip id="385" depart="7.70" from="255623676#0" to="-499084041#2"/>
    <trip id="386" depart="7.72" from="-435542917#2" to="435542913#0"/>
    <trip id="387" depart="7.74" from="255370738#0" to="-235714536#1"/>
    <trip id="388" depart="7.76" from="56150114#0" to="867133912"/>
    <trip id="389" depart="7.78" from="235714536#0" to="-312901457#1"/>
    <trip id="390" depart="7.80" from="435559513#0" to="316907582#0"/>
    <trip id="391" depart="7.82" from="315989544#1" to="316907582#0"/>
    <trip id="392" depart="7.84" from="-435561333" to="435724067"/>
    <trip id="393" depart="7.86" from="514505609" to="-514505609"/>
    <trip id="394" depart="7.88" from="255370738#0" to="145834820"/>
    <trip id="395" depart="7.90" from="499084041#0" to="316907582#0"/>
    <trip id="396" depart="7.92" from="435724064" to="499084040#0"/>
    <trip id="397" depart="7.94" from="-435561738#1" to="435561322"/>
    <trip id="398" depart="7.96" from="149987524#0" to="867133912"/>
    <trip id="399" depart="7.98" from="235714536#0" to="435561738#0"/>
    <trip id="400" depart="8.00" from="-488356723#2" to="-805354864"/>
    <trip id="401" depart="8.02" from="255623676#0" to="983216734"/>
    <trip id="402" depart="8.04" from="235714536#0" to="-435558489"/>
    <trip id="403" depart="8.06" from="255370738#0" to="145826648#0"/>
    <trip id="404" depart="8.08" from="255370738#0" to="435542913#0"/>
    <trip id="405" depart="8.10" from="153273211#1" to="145826648#0"/>
    <trip id="406" depart="8.12" from="-435558485#1" to="435559503#0"/>
    <trip id="407" depart="8.14" from="255370738#0" to="-488356723#2"/>
    <trip id="408" depart="8.16" from="435558489" to="-149987524#3"/>
    <trip id="409" depart="8.18" from="435558487#0" to="435559503#0"/>
    <trip id="410" depart="8.20" from="435558495#0" to="145834820"/>
    <trip id="411" depart="8.22" from="294592601#0" to="435561738#0"/>
    <trip id="412" depart="8.24" from="514505609" to="316907582#0"/>
    <trip id="413" depart="8.26" from="-145826648#9" to="316907582#0"/>
    <trip id="414" depart="8.28" from="255623676#0" to="499084041#0"/>
    <trip id="415" depart="8.30" from="435724062" to="312901457#0"/>
    <trip id="416" depart="8.32" from="255370738#0" to="314011263#0"/>
    <trip id="417" depart="8.34" from="435542908" to="23891121#0"/>
    <trip id="418" depart="8.36" from="294592601#0" to="-435558489"/>
    <trip id="419" depart="8.38" from="235714536#0" to="867133913#0"/>
    <trip id="420" depart="8.40" from="-867133912" to="435559503#0"/>
    <trip id="421" depart="8.42" from="294592601#0" to="435724071"/>
    <trip id="422" depart="8.44" from="435561332#0" to="488356723#1"/>