<?xml version="1.0" encoding="UTF-8"?>

<!-- generated on Tue 19 Oct 2021 06:40:39 PM UTC by Eclipse SUMO netedit Version 1.8.0
<configuration xmlns:xsi="http://www.w3.org/2001/XMLSchema-instance" xsi:noNamespaceSchemaLocation="http://sumo.dlr.de/xsd/netconvertConfiguration.xsd">

    <input>
        <sumo-net-file value="osm.net.xml"/>
    </input>

    <output>
        <output-file value="/home/veins/Desktop/Places/IIT/iit.net.xml"/>
        <output.street-names value="true"/>
    </output>

    <processing>
        <geometry.min-radius.fix.railways value="false"/>
        <geometry.max-grade.fix value="false"/>
        <offset.disable-normalization value="true"/>
        <lefthand value="false"/>
    </processing>

    <junctions>
        <no-turnarounds value="true"/>
        <junctions.corner-detail value="5"/>
        <junctions.limit-turn-speed value="5.5"/>
        <rectangular-lane-cut value="false"/>
    </junctions>

    <pedestrian>
        <walkingareas value="false"/>
    </pedestrian>

    <report>
        <aggregate-warnings value="5"/>
    </report>

</configuration>
-->

<net version="1.6" junctionCornerDetail="5" limitTurnSpeed="5.50" xmlns:xsi="http://www.w3.org/2001/XMLSchema-instance" xsi:noNamespaceSchemaLocation="http://sumo.dlr.de/xsd/net_file.xsd">

    <location netOffset="-447756.92,-4635252.27" convBoundary="0.00,0.00,755.30,897.15" origBoundary="-87.629545,41.855418,-87.616974,41.879497" projParameter="+proj=utm +zone=16 +ellps=WGS84 +datum=WGS84 +units=m +no_defs"/>

    <type id="highway.bridleway" priority="1" numLanes="1" speed="2.78" allow="pedestrian" oneway="1" width="2.00"/>
    <type id="highway.bus_guideway" priority="1" numLanes="1" speed="27.78" allow="bus" oneway="1"/>
    <type id="highway.cycleway" priority="1" numLanes="1" speed="8.33" allow="bicycle" oneway="1" width="1.00"/>
    <type id="highway.footway" priority="1" numLanes="1" speed="2.78" allow="pedestrian" oneway="1" width="2.00"/>
    <type id="highway.ford" priority="1" numLanes="1" speed="2.78" allow="army" oneway="1"/>
    <type id="highway.living_street" priority="2" numLanes="1" speed="2.78" disallow="tram rail_urban rail rail_electric rail_fast ship" oneway="1"/>
    <type id="highway.motorway" priority="14" numLanes="2" speed="39.44" allow="private emergency authority army vip passenger hov taxi bus coach delivery truck trailer motorcycle evehicle custom1 custom2" oneway="1"/>
    <type id="highway.motorway_link" priority="9" numLanes="1" speed="22.22" allow="private emergency authority army vip passenger hov taxi bus coach delivery truck trailer motorcycle evehicle custom1 custom2" oneway="1"/>
    <type id="highway.path" priority="1" numLanes="1" speed="2.78" allow="pedestrian bicycle" oneway="1" width="2.00"/>
    <type id="highway.pedestrian" priority="1" numLanes="1" speed="2.78" allow="pedestrian" oneway="1" width="2.00"/>
    <type id="highway.primary" priority="12" numLanes="2" speed="27.78" disallow="tram rail_urban rail rail_electric rail_fast ship" oneway="1"/>
    <type id="highway.primary_link" priority="7" numLanes="1" speed="22.22" disallow="tram rail_urban rail rail_electric rail_fast ship" oneway="1"/>
    <type id="highway.raceway" priority="15" numLanes="2" speed="83.33" allow="vip" oneway="1"/>
    <type id="highway.residential" priority="3" numLanes="1" speed="13.89" disallow="tram rail_urban rail rail_electric rail_fast ship" oneway="1"/>
    <type id="highway.secondary" priority="11" numLanes="1" speed="27.78" disallow="tram rail_urban rail rail_electric rail_fast ship" oneway="1"/>
    <type id="highway.secondary_link" priority="6" numLanes="1" speed="22.22" disallow="tram rail_urban rail rail_electric rail_fast ship" oneway="1"/>
    <type id="highway.service" priority="1" numLanes="1" speed="5.56" allow="pedestrian delivery bicycle" oneway="1"/>
    <type id="highway.stairs" priority="1" numLanes="1" speed="1.39" allow="pedestrian" oneway="1" width="2.00"/>
    <type id="highway.step" priority="1" numLanes="1" speed="1.39" allow="pedestrian" oneway="1" width="2.00"/>
    <type id="highway.steps" priority="1" numLanes="1" speed="1.39" allow="pedestrian" oneway="1" width="2.00"/>
    <type id="highway.tertiary" priority="10" numLanes="1" speed="22.22" disallow="tram rail_urban rail rail_electric rail_fast ship" oneway="1"/>
    <type id="highway.tertiary_link" priority="5" numLanes="1" speed="22.22" disallow="tram rail_urban rail rail_electric rail_fast ship" oneway="1"/>
    <type id="highway.track" priority="1" numLanes="1" speed="5.56" allow="pedestrian motorcycle moped bicycle" oneway="1"/>
    <type id="highway.trunk" priority="13" numLanes="2" speed="27.78" disallow="pedestrian bicycle tram rail_urban rail rail_electric rail_fast ship" oneway="1"/>
    <type id="highway.trunk_link" priority="8" numLanes="1" speed="22.22" disallow="pedestrian bicycle tram rail_urban rail rail_electric rail_fast ship" oneway="1"/>
    <type id="highway.unclassified" priority="4" numLanes="1" speed="13.89" disallow="tram rail_urban rail rail_electric rail_fast ship" oneway="1"/>
    <type id="highway.unsurfaced" priority="1" numLanes="1" speed="8.33" disallow="tram rail_urban rail rail_electric rail_fast ship" oneway="1"/>
    <type id="railway.highspeed" priority="21" numLanes="1" speed="69.44" allow="rail_fast" oneway="1"/>
    <type id="railway.light_rail" priority="19" numLanes="1" speed="27.78" allow="rail_urban" oneway="1"/>
    <type id="railway.preserved" priority="16" numLanes="1" speed="27.78" allow="rail" oneway="1"/>
    <type id="railway.rail" priority="20" numLanes="1" speed="44.44" allow="rail" oneway="1"/>
    <type id="railway.subway" priority="18" numLanes="1" speed="27.78" allow="rail_urban" oneway="1"/>
    <type id="railway.tram" priority="17" numLanes="1" speed="13.89" allow="tram" oneway="1"/>

    <edge id=":1629279599_0" function="internal">
        <lane id=":1629279599_0_0" index="0" disallow="tram rail_urban rail rail_electric rail_fast ship" speed="3.65" length="4.67" shape="79.99,425.96 79.21,427.18 78.42,427.59 77.61,427.20 76.79,426.02"/>
    </edge>
    <edge id=":1629279600_0" function="internal">
        <lane id=":1629279600_0_0" index="0" disallow="tram rail_urban rail rail_electric rail_fast ship" speed="3.65" length="4.67" shape="76.65,430.47 77.52,429.32 78.35,428.97 79.12,429.42 79.85,430.67"/>
    </edge>
    <edge id=":1659791118_0" function="internal">
        <lane id=":1659791118_0_0" index="0" disallow="tram rail_urban rail rail_electric rail_fast ship" speed="7.29" length="11.68" shape="313.40,201.06 309.56,201.32 306.81,202.30 305.13,204.01 304.54,206.45"/>
    </edge>
    <edge id=":1659791118_1" function="internal">
        <lane id=":1659791118_1_0" index="0" disallow="tram rail_urban rail rail_electric rail_fast ship" speed="22.22" length="20.77" shape="313.40,201.06 292.64,200.65"/>
    </edge>
    <edge id=":1659791118_2" function="internal">
        <lane id=":1659791118_2_0" index="0" disallow="tram rail_urban rail rail_electric rail_fast ship" speed="8.69" length="7.78" shape="313.40,201.06 308.18,200.38 305.90,199.31"/>
    </edge>
    <edge id=":1659791118_3" function="internal">
        <lane id=":1659791118_3_0" index="0" disallow="tram rail_urban rail rail_electric rail_fast ship" speed="3.65" length="2.34" shape="313.40,201.06 312.22,200.23 311.84,199.42"/>
    </edge>
    <edge id=":1659791118_16" function="internal">
        <lane id=":1659791118_16_0" index="0" disallow="tram rail_urban rail rail_electric rail_fast ship" speed="8.69" length="9.06" shape="305.90,199.31 304.47,198.64 302.28,195.84 301.60,191.98"/>
    </edge>
    <edge id=":1659791118_17" function="internal">
        <lane id=":1659791118_17_0" index="0" disallow="tram rail_urban rail rail_electric rail_fast ship" speed="3.65" length="2.34" shape="311.84,199.42 312.26,198.64 313.48,197.87"/>
    </edge>
    <edge id=":1659791118_4" function="internal">
        <lane id=":1659791118_4_0" index="0" disallow="tram rail_urban rail rail_electric rail_fast ship" speed="6.53" length="9.06" shape="308.00,192.10 308.30,194.57 309.32,196.35 311.05,197.45 313.48,197.87"/>
    </edge>
    <edge id=":1659791118_5" function="internal">
        <lane id=":1659791118_5_0" index="0" disallow="tram rail_urban rail rail_electric rail_fast ship" speed="20.59" length="14.85" shape="308.00,192.10 307.41,196.75 306.25,200.17 305.10,203.14 304.54,206.45"/>
    </edge>
    <edge id=":1659791118_6" function="internal">
        <lane id=":1659791118_6_0" index="0" disallow="tram rail_urban rail rail_electric rail_fast ship" speed="8.68" length="16.86" shape="304.80,192.04 303.98,195.87 301.68,198.58 297.90,200.18 292.64,200.65"/>
    </edge>
    <edge id=":1659791118_7" function="internal">
        <lane id=":1659791118_7_0" index="0" disallow="tram rail_urban rail rail_electric rail_fast ship" speed="3.65" length="4.67" shape="304.80,192.04 303.98,193.23 303.17,193.61 302.38,193.20 301.60,191.98"/>
    </edge>
    <edge id=":1659791118_8" function="internal">
        <lane id=":1659791118_8_0" index="0" disallow="tram rail_urban rail rail_electric rail_fast ship" speed="7.34" length="11.75" shape="292.68,197.45 296.55,197.16 299.32,196.15 301.00,194.42 301.60,191.98"/>
    </edge>
    <edge id=":1659791118_9" function="internal">
        <lane id=":1659791118_9_0" index="0" disallow="tram rail_urban rail rail_electric rail_fast ship" speed="22.22" length="20.80" shape="292.68,197.45 313.48,197.87"/>
    </edge>
    <edge id=":1659791118_10" function="internal">
        <lane id=":1659791118_10_0" index="0" disallow="tram rail_urban rail rail_electric rail_fast ship" speed="8.67" length="7.99" shape="292.68,197.45 297.93,198.08 300.38,199.20"/>
    </edge>
    <edge id=":1659791118_11" function="internal">
        <lane id=":1659791118_11_0" index="0" disallow="tram rail_urban rail rail_electric rail_fast ship" speed="3.65" length="2.34" shape="292.68,197.45 293.87,198.27 294.26,199.07"/>
    </edge>
    <edge id=":1659791118_18" function="internal">
        <lane id=":1659791118_18_0" index="0" disallow="tram rail_urban rail rail_electric rail_fast ship" speed="8.67" length="8.89" shape="300.38,199.20 301.66,199.79 303.86,202.58 304.54,206.45"/>
    </edge>
    <edge id=":1659791118_19" function="internal">
        <lane id=":1659791118_19_0" index="0" disallow="tram rail_urban rail rail_electric rail_fast ship" speed="3.65" length="2.34" shape="294.26,199.07 293.85,199.87 292.64,200.65"/>
    </edge>
    <edge id=":1659791118_12" function="internal">
        <lane id=":1659791118_12_0" index="0" disallow="tram rail_urban rail rail_electric rail_fast ship" speed="6.50" length="9.03" shape="298.14,206.34 297.84,203.88 296.82,202.11 295.08,201.04 292.64,200.65"/>
    </edge>
    <edge id=":1659791118_13" function="internal">
        <lane id=":1659791118_13_0" index="0" disallow="tram rail_urban rail rail_electric rail_fast ship" speed="20.59" length="14.85" shape="298.14,206.34 298.72,201.68 299.89,198.27 301.04,195.30 301.60,191.98"/>
    </edge>
    <edge id=":1659791118_14" function="internal">
        <lane id=":1659791118_14_0" index="0" disallow="tram rail_urban rail rail_electric rail_fast ship" speed="8.64" length="7.75" shape="301.34,206.40 302.16,202.55 304.46,199.84 304.70,199.74"/>
    </edge>
    <edge id=":1659791118_15" function="internal">
        <lane id=":1659791118_15_0" index="0" disallow="tram rail_urban rail rail_electric rail_fast ship" speed="3.65" length="2.57" shape="301.34,206.40 302.16,205.21 302.97,204.82 303.17,204.93"/>
    </edge>
    <edge id=":1659791118_20" function="internal">
        <lane id=":1659791118_20_0" index="0" disallow="tram rail_urban rail rail_electric rail_fast ship" speed="8.64" length="9.09" shape="304.70,199.74 308.23,198.28 313.48,197.87"/>
    </edge>
    <edge id=":1659791118_21" function="internal">
        <lane id=":1659791118_21_0" index="0" disallow="tram rail_urban rail rail_electric rail_fast ship" speed="3.65" length="2.11" shape="303.17,204.93 303.76,205.24 304.54,206.45"/>
    </edge>
    <edge id=":1961537632_0" function="internal">
        <lane id=":1961537632_0_0" index="0" disallow="tram rail_urban rail rail_electric rail_fast ship" speed="6.53" length="9.07" shape="86.42,340.59 83.95,340.92 82.19,341.96 81.11,343.71 80.74,346.17"/>
    </edge>
    <edge id=":1961537632_1" function="internal">
        <lane id=":1961537632_1_0" index="0" disallow="tram rail_urban rail rail_electric rail_fast ship" speed="13.89" length="14.43" shape="86.42,340.59 71.99,340.49"/>
    </edge>
    <edge id=":1961537632_2" function="internal">
        <lane id=":1961537632_2_0" index="0" disallow="tram rail_urban rail rail_electric rail_fast ship" speed="7.99" length="5.93" shape="86.42,340.59 82.56,340.01 80.83,338.95"/>
    </edge>
    <edge id=":1961537632_3" function="internal">
        <lane id=":1961537632_3_0" index="0" disallow="tram rail_urban rail rail_electric rail_fast ship" speed="3.65" length="2.34" shape="86.42,340.59 85.22,339.78 84.83,338.98"/>
    </edge>
    <edge id=":1961537632_16" function="internal">
        <lane id=":1961537632_16_0" index="0" disallow="tram rail_urban rail rail_electric rail_fast ship" speed="7.99" length="8.28" shape="80.83,338.95 79.82,338.34 78.20,335.57 77.70,331.70"/>
    </edge>
    <edge id=":1961537632_17" function="internal">
        <lane id=":1961537632_17_0" index="0" disallow="tram rail_urban rail rail_electric rail_fast ship" speed="3.65" length="2.34" shape="84.83,338.98 85.23,338.18 86.44,337.39"/>
    </edge>
    <edge id=":1961537632_4" function="internal">
        <lane id=":1961537632_4_0" index="0" disallow="tram rail_urban rail rail_electric rail_fast ship" speed="6.49" length="9.03" shape="80.90,331.74 81.22,334.20 82.25,335.96 83.99,337.02 86.44,337.39"/>
    </edge>
    <edge id=":1961537632_5" function="internal">
        <lane id=":1961537632_5_0" index="0" disallow="tram rail_urban rail rail_electric rail_fast ship" speed="13.89" length="14.43" shape="80.90,331.74 80.74,346.17"/>
    </edge>
    <edge id=":1961537632_6" function="internal">
        <lane id=":1961537632_6_0" index="0" disallow="tram rail_urban rail rail_electric rail_fast ship" speed="8.03" length="14.22" shape="80.90,331.74 80.30,335.59 78.62,338.33 75.85,339.97 71.99,340.49"/>
    </edge>
    <edge id=":1961537632_7" function="internal">
        <lane id=":1961537632_7_0" index="0" disallow="tram rail_urban rail rail_electric rail_fast ship" speed="3.65" length="4.67" shape="80.90,331.74 80.09,332.93 79.28,333.32 78.49,332.91 77.70,331.70"/>
    </edge>
    <edge id=":1961537632_8" function="internal">
        <lane id=":1961537632_8_0" index="0" disallow="tram rail_urban rail rail_electric rail_fast ship" speed="6.54" length="9.09" shape="72.01,337.29 74.47,336.96 76.24,335.91 77.32,334.16 77.70,331.70"/>
    </edge>
    <edge id=":1961537632_9" function="internal">
        <lane id=":1961537632_9_0" index="0" disallow="tram rail_urban rail rail_electric rail_fast ship" speed="13.89" length="14.43" shape="72.01,337.29 86.44,337.39"/>
    </edge>
    <edge id=":1961537632_10" function="internal">
        <lane id=":1961537632_10_0" index="0" disallow="tram rail_urban rail rail_electric rail_fast ship" speed="8.00" length="5.93" shape="72.01,337.29 75.86,337.87 77.60,338.93"/>
    </edge>
    <edge id=":1961537632_11" function="internal">
        <lane id=":1961537632_11_0" index="0" disallow="tram rail_urban rail rail_electric rail_fast ship" speed="3.65" length="2.34" shape="72.01,337.29 73.20,338.10 73.60,338.90"/>
    </edge>
    <edge id=":1961537632_18" function="internal">
        <lane id=":1961537632_18_0" index="0" disallow="tram rail_urban rail rail_electric rail_fast ship" speed="8.00" length="8.28" shape="77.60,338.93 78.60,339.54 80.22,342.31 80.74,346.17"/>
    </edge>
    <edge id=":1961537632_19" function="internal">
        <lane id=":1961537632_19_0" index="0" disallow="tram rail_urban rail rail_electric rail_fast ship" speed="3.65" length="2.34" shape="73.60,338.90 73.19,339.70 71.99,340.49"/>
    </edge>
    <edge id=":1961537632_12" function="internal">
        <lane id=":1961537632_12_0" index="0" disallow="tram rail_urban rail rail_electric rail_fast ship" speed="6.50" length="9.03" shape="77.54,346.13 77.21,343.68 76.18,341.92 74.44,340.86 71.99,340.49"/>
    </edge>
    <edge id=":1961537632_13" function="internal">
        <lane id=":1961537632_13_0" index="0" disallow="tram rail_urban rail rail_electric rail_fast ship" speed="13.89" length="14.43" shape="77.54,346.13 77.70,331.70"/>
    </edge>
    <edge id=":1961537632_14" function="internal">
        <lane id=":1961537632_14_0" index="0" disallow="tram rail_urban rail rail_electric rail_fast ship" speed="8.02" length="14.22" shape="77.54,346.13 78.13,342.29 79.81,339.55 82.58,337.91 86.44,337.39"/>
    </edge>
    <edge id=":1961537632_15" function="internal">
        <lane id=":1961537632_15_0" index="0" disallow="tram rail_urban rail rail_electric rail_fast ship" speed="3.65" length="4.67" shape="77.54,346.13 78.35,344.94 79.15,344.55 79.95,344.96 80.74,346.17"/>
    </edge>
    <edge id=":1961538418_0" function="internal">
        <lane id=":1961538418_0_0" index="0" disallow="tram rail_urban rail rail_electric rail_fast ship" speed="3.65" length="4.67" shape="-0.01,340.00 -1.21,339.19 -1.60,338.39 -1.19,337.59 0.01,336.80"/>
    </edge>
    <edge id=":258877177_0" function="internal">
        <lane id=":258877177_0_0" index="0" disallow="tram rail_urban rail rail_electric rail_fast ship" speed="3.65" length="4.67" shape="36.98,534.67 35.79,533.86 35.39,533.06 35.79,532.26 37.00,531.47"/>
    </edge>
    <edge id=":258877330_0" function="internal">
        <lane id=":258877330_0_0" index="0" disallow="tram rail_urban rail rail_electric rail_fast ship" speed="3.65" length="4.67" shape="301.21,626.61 300.40,627.80 299.59,628.19 298.80,627.78 298.01,626.57"/>
    </edge>
    <edge id=":258877437_0" function="internal">
        <lane id=":258877437_0_0" index="0" disallow="tram rail_urban rail rail_electric rail_fast ship" speed="7.30" length="11.66" shape="311.68,486.73 307.85,487.02 305.11,488.03 303.45,489.75 302.87,492.19"/>
    </edge>
    <edge id=":258877437_1" function="internal">
        <lane id=":258877437_1_0" index="0" disallow="tram rail_urban rail rail_electric rail_fast ship" speed="22.22" length="20.73" shape="311.68,486.73 290.95,486.39"/>
    </edge>
    <edge id=":258877437_2" function="internal">
        <lane id=":258877437_2_0" index="0" disallow="tram rail_urban rail rail_electric rail_fast ship" speed="8.73" length="7.85" shape="311.68,486.73 306.46,486.09 304.11,485.01"/>
    </edge>
    <edge id=":258877437_3" function="internal">
        <lane id=":258877437_3_0" index="0" disallow="tram rail_urban rail rail_electric rail_fast ship" speed="3.65" length="2.34" shape="311.68,486.73 310.49,485.91 310.11,485.11"/>
    </edge>
    <edge id=":258877437_16" function="internal">
        <lane id=":258877437_16_0" index="0" disallow="tram rail_urban rail rail_electric rail_fast ship" speed="8.73" length="9.03" shape="304.11,485.01 302.74,484.38 300.50,481.58 299.76,477.71"/>
    </edge>
    <edge id=":258877437_17" function="internal">
        <lane id=":258877437_17_0" index="0" disallow="tram rail_urban rail rail_electric rail_fast ship" speed="3.65" length="2.34" shape="310.11,485.11 310.52,484.31 311.73,483.53"/>
    </edge>
    <edge id=":258877437_4" function="internal">
        <lane id=":258877437_4_0" index="0" disallow="tram rail_urban rail rail_electric rail_fast ship" speed="6.59" length="9.16" shape="306.16,477.71 306.51,480.22 307.55,482.03 309.29,483.13 311.73,483.53"/>
    </edge>
    <edge id=":258877437_5" function="internal">
        <lane id=":258877437_5_0" index="0" disallow="tram rail_urban rail rail_electric rail_fast ship" speed="27.78" length="14.94" shape="306.16,477.71 305.65,482.40 304.54,485.86 303.41,488.87 302.87,492.19"/>
    </edge>
    <edge id=":258877437_6" function="internal">
        <lane id=":258877437_6_0" index="0" disallow="tram rail_urban rail rail_electric rail_fast ship" speed="8.62" length="16.85" shape="302.96,477.71 302.21,481.58 299.96,484.32 296.20,485.92 290.95,486.39"/>
    </edge>
    <edge id=":258877437_7" function="internal">
        <lane id=":258877437_7_0" index="0" disallow="tram rail_urban rail rail_electric rail_fast ship" speed="3.65" length="4.67" shape="302.96,477.71 302.16,478.91 301.36,479.31 300.56,478.91 299.76,477.71"/>
    </edge>
    <edge id=":258877437_8" function="internal">
        <lane id=":258877437_8_0" index="0" disallow="tram rail_urban rail rail_electric rail_fast ship" speed="7.26" length="11.66" shape="291.00,483.19 294.83,482.90 297.57,481.89 299.21,480.16 299.76,477.71"/>
    </edge>
    <edge id=":258877437_9" function="internal">
        <lane id=":258877437_9_0" index="0" disallow="tram rail_urban rail rail_electric rail_fast ship" speed="22.22" length="20.73" shape="291.00,483.19 311.73,483.53"/>
    </edge>
    <edge id=":258877437_10" function="internal">
        <lane id=":258877437_10_0" index="0" disallow="tram rail_urban rail rail_electric rail_fast ship" speed="8.69" length="7.88" shape="291.00,483.19 296.24,483.82 298.60,484.91"/>
    </edge>
    <edge id=":258877437_11" function="internal">
        <lane id=":258877437_11_0" index="0" disallow="tram rail_urban rail rail_electric rail_fast ship" speed="3.65" length="2.34" shape="291.00,483.19 292.19,484.01 292.58,484.81"/>
    </edge>
    <edge id=":258877437_18" function="internal">
        <lane id=":258877437_18_0" index="0" disallow="tram rail_urban rail rail_electric rail_fast ship" speed="8.69" length="8.98" shape="298.60,484.91 299.96,485.54 302.17,488.33 302.87,492.19"/>
    </edge>
    <edge id=":258877437_19" function="internal">
        <lane id=":258877437_19_0" index="0" disallow="tram rail_urban rail rail_electric rail_fast ship" speed="3.65" length="2.34" shape="292.58,484.81 292.16,485.61 290.95,486.39"/>
    </edge>
    <edge id=":258877437_12" function="internal">
        <lane id=":258877437_12_0" index="0" disallow="tram rail_urban rail rail_electric rail_fast ship" speed="6.53" length="9.07" shape="296.47,492.12 296.15,489.64 295.13,487.87 293.39,486.78 290.95,486.39"/>
    </edge>
    <edge id=":258877437_13" function="internal">
        <lane id=":258877437_13_0" index="0" disallow="tram rail_urban rail rail_electric rail_fast ship" speed="27.78" length="14.86" shape="296.47,492.12 297.02,487.45 298.15,484.02 299.26,481.03 299.76,477.71"/>
    </edge>
    <edge id=":258877437_14" function="internal">
        <lane id=":258877437_14_0" index="0" disallow="tram rail_urban rail rail_electric rail_fast ship" speed="8.65" length="16.81" shape="299.67,492.16 300.47,488.31 302.74,485.59 306.50,484.00 311.73,483.53"/>
    </edge>
    <edge id=":258877437_15" function="internal">
        <lane id=":258877437_15_0" index="0" disallow="tram rail_urban rail rail_electric rail_fast ship" speed="3.65" length="4.67" shape="299.67,492.16 300.49,490.97 301.29,490.57 302.09,490.98 302.87,492.19"/>
    </edge>
    <edge id=":261116518_0" function="internal">
        <lane id=":261116518_0_0" index="0" disallow="tram rail_urban rail rail_electric rail_fast ship" speed="6.54" length="9.10" shape="83.50,534.92 81.03,535.26 79.26,536.30 78.18,538.05 77.80,540.51"/>
    </edge>
    <edge id=":261116518_1" function="internal">
        <lane id=":261116518_1_0" index="0" disallow="tram rail_urban rail rail_electric rail_fast ship" speed="22.22" length="14.45" shape="83.50,534.92 69.05,534.84"/>
    </edge>
    <edge id=":261116518_2" function="internal">
        <lane id=":261116518_2_0" index="0" disallow="tram rail_urban rail rail_electric rail_fast ship" speed="7.98" length="5.93" shape="83.50,534.92 79.64,534.35 77.91,533.29"/>
    </edge>
    <edge id=":261116518_3" function="internal">
        <lane id=":261116518_3_0" index="0" disallow="tram rail_urban rail rail_electric rail_fast ship" speed="3.65" length="2.34" shape="83.50,534.92 82.31,534.11 81.91,533.31"/>
    </edge>
    <edge id=":261116518_16" function="internal">
        <lane id=":261116518_16_0" index="0" disallow="tram rail_urban rail rail_electric rail_fast ship" speed="7.98" length="8.30" shape="77.91,533.29 76.90,532.67 75.29,529.90 74.79,526.02"/>
    </edge>
    <edge id=":261116518_17" function="internal">
        <lane id=":261116518_17_0" index="0" disallow="tram rail_urban rail rail_electric rail_fast ship" speed="3.65" length="2.34" shape="81.91,533.31 82.32,532.51 83.52,531.72"/>
    </edge>
    <edge id=":261116518_4" function="internal">
        <lane id=":261116518_4_0" index="0" disallow="tram rail_urban rail rail_electric rail_fast ship" speed="6.49" length="9.03" shape="77.99,526.07 78.31,528.53 79.33,530.29 81.07,531.36 83.52,531.72"/>
    </edge>
    <edge id=":261116518_5" function="internal">
        <lane id=":261116518_5_0" index="0" disallow="tram rail_urban rail rail_electric rail_fast ship" speed="13.89" length="14.44" shape="77.99,526.07 77.80,540.51"/>
    </edge>
    <edge id=":261116518_6" function="internal">
        <lane id=":261116518_6_0" index="0" disallow="tram rail_urban rail rail_electric rail_fast ship" speed="8.05" length="14.25" shape="77.99,526.07 77.38,529.93 75.69,532.67 72.91,534.31 69.05,534.84"/>
    </edge>
    <edge id=":261116518_7" function="internal">
        <lane id=":261116518_7_0" index="0" disallow="tram rail_urban rail rail_electric rail_fast ship" speed="3.65" length="4.67" shape="77.99,526.07 77.17,527.26 76.37,527.65 75.57,527.24 74.79,526.02"/>
    </edge>
    <edge id=":261116518_8" function="internal">
        <lane id=":261116518_8_0" index="0" disallow="tram rail_urban rail rail_electric rail_fast ship" speed="6.56" length="9.12" shape="69.07,531.64 71.54,531.30 73.32,530.25 74.40,528.49 74.79,526.02"/>
    </edge>
    <edge id=":261116518_9" function="internal">
        <lane id=":261116518_9_0" index="0" disallow="tram rail_urban rail rail_electric rail_fast ship" speed="22.22" length="14.45" shape="69.07,531.64 83.52,531.72"/>
    </edge>
    <edge id=":261116518_10" function="internal">
        <lane id=":261116518_10_0" index="0" disallow="tram rail_urban rail rail_electric rail_fast ship" speed="7.99" length="5.93" shape="69.07,531.64 72.93,532.21 74.66,533.27"/>
    </edge>
    <edge id=":261116518_11" function="internal">
        <lane id=":261116518_11_0" index="0" disallow="tram rail_urban rail rail_electric rail_fast ship" speed="3.65" length="2.34" shape="69.07,531.64 70.27,532.45 70.66,533.25"/>
    </edge>
    <edge id=":261116518_18" function="internal">
        <lane id=":261116518_18_0" index="0" disallow="tram rail_urban rail rail_electric rail_fast ship" speed="7.99" length="8.28" shape="74.66,533.27 75.67,533.88 77.29,536.65 77.80,540.51"/>
    </edge>
    <edge id=":261116518_19" function="internal">
        <lane id=":261116518_19_0" index="0" disallow="tram rail_urban rail rail_electric rail_fast ship" speed="3.65" length="2.34" shape="70.66,533.25 70.26,534.05 69.05,534.84"/>
    </edge>
    <edge id=":261116518_12" function="internal">
        <lane id=":261116518_12_0" index="0" disallow="tram rail_urban rail rail_electric rail_fast ship" speed="6.50" length="9.03" shape="74.60,540.48 74.28,538.02 73.25,536.27 71.50,535.21 69.05,534.84"/>
    </edge>
    <edge id=":261116518_13" function="internal">
        <lane id=":261116518_13_0" index="0" disallow="tram rail_urban rail rail_electric rail_fast ship" speed="13.89" length="14.46" shape="74.60,540.48 74.79,526.02"/>
    </edge>
    <edge id=":261116518_14" function="internal">
        <lane id=":261116518_14_0" index="0" disallow="tram rail_urban rail rail_electric rail_fast ship" speed="8.03" length="14.24" shape="74.60,540.48 75.20,536.63 76.88,533.89 79.65,532.25 83.52,531.72"/>
    </edge>
    <edge id=":261116518_15" function="internal">
        <lane id=":261116518_15_0" index="0" disallow="tram rail_urban rail rail_electric rail_fast ship" speed="3.65" length="4.67" shape="74.60,540.48 75.42,539.29 76.22,538.90 77.02,539.31 77.80,540.51"/>
    </edge>
    <edge id=":272206538_0" function="internal">
        <lane id=":272206538_0_0" index="0" disallow="tram rail_urban rail rail_electric rail_fast ship" speed="3.65" length="4.67" shape="753.70,9.19 754.56,8.03 755.38,7.67 756.16,8.11 756.90,9.35"/>
    </edge>
    <edge id=":33718415_0" function="internal">
        <lane id=":33718415_0_0" index="0" disallow="tram rail_urban rail rail_electric rail_fast ship" speed="3.65" length="4.67" shape="748.85,634.12 748.08,635.34 747.29,635.76 746.48,635.38 745.65,634.20"/>
    </edge>
    <edge id=":33754408_0" function="internal">
        <lane id=":33754408_0_0" index="0" disallow="tram rail_urban rail rail_electric rail_fast ship" speed="6.02" length="16.51" shape="439.49,15.92 455.98,14.98"/>
    </edge>
    <edge id=":33754408_1" function="internal">
        <lane id=":33754408_1_0" index="0" disallow="tram rail_urban rail rail_electric rail_fast ship" speed="4.90" length="10.15" shape="442.69,17.12 452.83,16.56"/>
    </edge>
    <edge id=":33754408_2" function="internal">
        <lane id=":33754408_2_0" index="0" disallow="tram rail_urban rail rail_electric rail_fast ship" speed="3.42" length="3.79" shape="445.89,18.31 449.67,18.15"/>
    </edge>
    <edge id=":388608195_0" function="internal">
        <lane id=":388608195_0_0" index="0" disallow="tram rail_urban rail rail_electric rail_fast ship" speed="3.65" length="4.67" shape="75.95,897.17 75.14,898.36 74.33,898.75 73.54,898.34 72.75,897.13"/>
    </edge>
    <edge id=":418080724_0" function="internal">